version 2
run MoST-MaliciousCoordinated-1-20201101-14:21:27-17938
attr configname MoST-MaliciousCoordinated
attr datetime 20201101-14:21:27
attr experiment MoST-MaliciousCoordinated
attr inifile omnetpp.ini
attr iterationvars $0=true
attr iterationvarsf true-
attr measurement $0=true
attr network CoordinatedAttackScenario
attr processid 17938
attr repetition 0
attr replication #0
attr resultdir results
attr runnumber 1
attr seedset 1
param *.playgroundSizeX 10500m
param *.playgroundSizeY 7000m
param *.playgroundSizeZ 50m
param *.manager.launchConfig "xmldoc(\"most.launchd.xml\")"
param *.manager.connectAt 14400s
param *.manager.firstStepAt 20000s
param *.manager.updateInterval 250ms
param *.manager.moduleType "\"passenger1=org.car2x.veins.subprojects.simulator.nodes.Vehicle passenger2a=org.car2x.veins.subprojects.simulator.nodes.Vehicle passenger2b=org.car2x.veins.subprojects.simulator.nodes.Vehicle passenger3=org.car2x.veins.subprojects.simulator.nodes.Vehicle passenger4=org.car2x.veins.subprojects.simulator.nodes.Vehicle *=org.car2x.veins.subprojects.simulator.nodes.NonPartakingVehicle\""
param *.manager.moduleName "\"passenger1=node passenger2a=node passenger2b=node passenger3=node passenger4=node *=other\""
param *.manager.moduleDisplayString "\"passenger1='i=veins/node/car;is=vs' passenger2a='i=veins/node/car;is=vs' passenger2b='i=veins/node/car;is=vs' passenger3='i=veins/node/car;is=vs' passenger4='i=veins/node/car;is=vs' *='i=veins/node/bicycle;is=vs'\""
param *.manager.secondModuleType "\"passenger1=org.car2x.veins.subprojects.simulator.nodes.Vehicle passenger2a=org.car2x.veins.subprojects.simulator.nodes.Vehicle passenger2b=org.car2x.veins.subprojects.simulator.nodes.Vehicle passenger3=org.car2x.veins.subprojects.simulator.nodes.Vehicle passenger4=org.car2x.veins.subprojects.simulator.nodes.Vehicle *=org.car2x.veins.subprojects.simulator.nodes.NonPartakingVehicle\""
param *.rsuPlacer.rows 20
param *.rsuPlacer.cols 20
param *.rsuPlacer.rsuDisplayString "\"i=veins/node/cone;is=vs\""
param *.node2[*].app.blockchain.validatorModule "\"org.car2x.veins.subprojects.simulator.modules.validation.PlausibilityValidation\""
param *.node2[*].app.generatorModule "\"org.car2x.veins.subprojects.simulator.modules.transactions.MimicTransactionGenerator\""
param *.node2[*].app.transactionGenerator.answerBack true
param *.node2[*].app.transactionGenerator.transactionsPerTurn 2
param *.**.app.blockchain.statusUpdateModule "\"org.car2x.veins.subprojects.simulator.modules.status.FixedReward\""
param *.**.app.transactionGenerator.maxOffset 40m
param *.**.app.transactionGenerator.minOffset 30m
param *.manager.vehicleCap 1500
param *.manager.ratio 0.05
param *.**.app.transactionGenerator.range 15m
param *.**.wave.range 15m
param *.logger.logFile "\"results/MoST-MaliciousCoordinated-true--1.blockchain.log\""
param *.addressTable.logFile "\"results/MoST-MaliciousCoordinated-true--1.addresses.log\""
param *.maliciousNodes 0
param *.nodePlacer.x 500
param *.nodePlacer.y 500
param *.**.app.blockchain.statusUpdater.maxReward 4096
param *.**.app.blockchain.statusUpdater.reward 256
param *.**.app.blockchain.statusUpdater.penalty 512
param *.**.app.blockchain.statusUpdater.startingReward 64
param *.**.app.blockchain.blockValidator.decayRate 0.3
param *.**.app.blockchain.blockValidator.varianceWeight 0.67
param *.**.app.blockchain.blockValidator.maxConflicts 2
param *.**.app.blockchain.blockchain.storedChainLength 10
param *.**.app.blockchain.blockValidator.depth 3
param *.**.app.blockchain.blockValidator.threshold 0.1
param *.**.app.transactionPeriod 5s
param *.manager.secondModuleType "\"org.car2x.veins.subprojects.simulator.nodes.Vehicle\""
param *.manager.ratio 0.1
param *.rsuPlacer.rows 16
param *.rsuPlacer.cols 16
param *.rsuPlacer.rsuDisplayString "\"i=veins/node/cone;is=vs\""
param *.**.app.blockchain.statusUpdater.rsuStartingReward 2048
param *.**.app.blockchain.statusUpdater.startingReward 1024
param *.**.app.blockchain.statusUpdater.reward 512
param *.**.app.blockchain.statusUpdater.penalty 2048
param *.**.app.blockchain.statusUpdater.maxReward 4096
param *.**.app.blockchain.consensusModule "\"org.car2x.veins.subprojects.simulator.modules.consensus.BaseVotingModel\""
param *.**.app.blockchain.filterModule "\"org.car2x.veins.subprojects.simulator.modules.blocks.SimpleFilter\""
param *.**.app.blockchain.harvesterModule "\"org.car2x.veins.subprojects.simulator.modules.harvesting.DeterministicHarvester\""
param *.**.app.blockchain.statusUpdateModule "\"org.car2x.veins.subprojects.simulator.modules.status.FixedReward\""
param *.**.app.blockchain.consensusModel.harvesters 3
param *.**.app.blockchain.consensusModel.faultTolerance 6
param *.**.app.blockchain.consensusModel.timeout 3s
param *.**.app.transactionPeriod 1s
param *.**.app.transactionGenerator.range 40m
param *.**.app.applicationModule "\"org.car2x.veins.subprojects.simulator.modules.application.TestApplication\""
param *.node[*].app.blockchain.validatorModule "\"org.car2x.veins.subprojects.simulator.modules.validation.PlausibilityValidation\""
param *.node[*].app.generatorModule "\"org.car2x.veins.subprojects.simulator.modules.transactions.ValidTransactionGenerator\""
param *.node2[*].app.blockchain.validatorModule "\"org.car2x.veins.subprojects.simulator.modules.validation.SelfishValidator\""
param *.node2[*].app.generatorModule "\"org.car2x.veins.subprojects.simulator.modules.transactions.MimicTransactionGenerator\""
param *.node[*].veinsmobility.x 0
param *.node[*].veinsmobility.y 0
param *.node[*].veinsmobility.z 0
param *.node[*].veinsmobility.setHostSpeed false
param *.node[*].veinsmobility.accidentCount 0
param *.node[*].veinsmobility.accidentStart 0s
param *.node[*].veinsmobility.accidentDuration 0s
param *.node2[*].veinsmobility.x 0
param *.node2[*].veinsmobility.y 0
param *.node2[*].veinsmobility.z 0
param *.node2[*].veinsmobility.setHostSpeed false
param *.node2[*].veinsmobility.accidentCount 0
param *.node2[*].veinsmobility.accidentStart 0s
param *.node2[*].veinsmobility.accidentDuration 0s
param *.RSU[*].app.blockchain.validatorModule "\"org.car2x.veins.subprojects.simulator.modules.validation.PlausibilityValidation\""
param *.RSU[*].app.generatorModule "\"org.car2x.veins.subprojects.simulator.modules.transactions.ValidTransactionGenerator\""
param *.RSU[*].app.blockchain.blockchain.downloadAtStart false
param *.playgroundSizeX 2500m
param *.playgroundSizeY 2500m
param *.playgroundSizeZ 50m
param *.annotations.draw true
param *.obstacles.obstacles "xmldoc(\"config.xml\", \"//AnalogueModel[@type='SimpleObstacleShadowing']/obstacles\")"
param *.manager.updateInterval 1s
param *.manager.host "\"localhost\""
param *.manager.port 9999
param *.manager.autoShutdown true
param *.manager.launchConfig "xmldoc(\"erlangen.launchd.xml\")"
param *.manager.moduleType "\"org.car2x.veins.subprojects.simulator.nodes.Vehicle\""
param *.manager.secondModuleType "\"org.car2x.veins.subprojects.simulator.nodes.Vehicle\""
param *.manager.ratio 0.0
param *.connectionManager.sendDirect true
param *.connectionManager.maxInterfDist 2600m
param *.connectionManager.drawMaxIntfDist false
param *.**.wave.range 40m
param *.**.wave.speed 6Gbps
param *.**.inet.speed 10Gbps
param *.**.app.blockchain.blocksize 50000
param *.**.app.blockchain.blocktime 60s
param *.**.app.blockchain.blockValidator.maxSpeed 130kmph
param *.logger.logFile "\"results/MoST-MaliciousCoordinated-1.blockchain.log\""
param *.addressTable.logFile "\"results/MoST-MaliciousCoordinated-1.addresses.log\""
param *.RSU[*].app.blockchain.blockchain.downloadAtStart false
param *.**.app.blockchain.consensusModule "\"org.car2x.veins.subprojects.simulator.modules.consensus.TrustedEnvironment\""
param *.**.app.blockchain.filterModule "\"org.car2x.veins.subprojects.simulator.modules.blocks.SimpleFilter\""
param *.**.app.blockchain.harvesterModule "\"org.car2x.veins.subprojects.simulator.modules.harvesting.DeterministicHarvester\""
param *.**.app.blockchain.statusUpdateModule "\"org.car2x.veins.subprojects.simulator.modules.status.FixedReward\""
param *.**.app.blockchain.validatorModule "\"org.car2x.veins.subprojects.simulator.modules.validation.PlausibilityValidation\""
param *.**.app.generatorModule "\"org.car2x.veins.subprojects.simulator.modules.transactions.ValidTransactionGenerator\""
param *.**.app.applicationModule "\"org.car2x.veins.subprojects.simulator.modules.application.TestApplication\""
param *.**.app.transactionPeriod 1s
param *.**.app.transactionGenerator.range 40m
param *.**.app.blockchain.consensusModel.faultTolerance 6
param *.**.app.blockchain.consensusModel.timeout 2s
param *.node[*].veinsmobility.x 0
param *.node[*].veinsmobility.y 0
param *.node[*].veinsmobility.z 0
param *.node[*].veinsmobility.setHostSpeed false
param *.node[*].veinsmobility.accidentCount 0
param *.node[*].veinsmobility.accidentStart 0s
param *.node[*].veinsmobility.accidentDuration 0s

vector 0 CoordinatedAttackScenario.logger TotalReputationAverage ETV
vector 1 CoordinatedAttackScenario.logger ActiveType1ReputationAverage ETV
vector 2 CoordinatedAttackScenario.logger ActiveType2ReputationAverage ETV
vector 3 CoordinatedAttackScenario.logger NumberOfNodes ETV
vector 4 CoordinatedAttackScenario.logger NumberOfActiveType1Nodes ETV
vector 5 CoordinatedAttackScenario.logger NumberOfActiveType2Nodes ETV
vector 6 CoordinatedAttackScenario.logger NumberOfActiveNodes ETV
vector 7 CoordinatedAttackScenario.logger NumberOfAcceptableTransactions ETV
vector 8 CoordinatedAttackScenario.logger NumberOfPlausibleTransactions ETV
vector 9 CoordinatedAttackScenario.logger NumberOfAcceptedType2Transactions ETV
vector 10 CoordinatedAttackScenario.logger NumberOfUnacceptedType1Transactions ETV
vector 11 CoordinatedAttackScenario.logger TotalTransactions ETV
vector 12 CoordinatedAttackScenario.logger Type2Transactions ETV
0	2	20000	2048
0	628957	20060	36.072727272727
0	1354809	20120.022718838742	27.30974025974
0	2159463	20180.043084268355	27.364831038798
0	3028990	20240.067375188073	36.361805979256
0	4006565	20300.084822232592	207.14437869822
0	5057084	20360.108097437789	264.82484258729
0	6207537	20420.130326420825	531.60533629794
0	7431992	20480.153065826729	673.43346007605
0	8728218	20540.176729413536	901.79514824798
0	10091588	20600.192282659558	870.56454204606
0	11552562	20660.211285570222	881.85165421558
0	13069065	20720.236000643374	939.79020234292
0	14630944	20780.259753999154	928.06542553191
0	16251859	20840.277537403523	982.83253588517
0	17936527	20900.299973566427	911.91126461211
0	19683690	20960.322764829577	904.33581296493
0	21541841	21020.348461641964	810.27789585547
0	23478980	21080.37349743345	761.33616569304
0	25474657	21140.399063560366	690.39543524416
0	27560729	21200.419782348402	626.86730360934
0	29714710	21260.444773125046	525.24309978769
0	31898079	21320.463585422149	496.03397027601
0	34100146	21380.488396746056	481.87632696391
0	36338394	21440.512083534973	460.84129511677
0	38583759	21500.533969600276	430.02229299363
0	40830787	21560.555526842284	414.27760084926
0	43079101	21620.580411206781	409.52494692144
0	45327713	21680.603926466107	423.69214437367
0	47579501	21740.62744021221	424.47452229299
0	49829566	21800.654516926476	428.36730360934
0	52080404	21860.678707286275	433.71549893843
0	54330686	21920.701912552064	422.25371549894
0	56580937	21980.722902191895	417.77016985138
0	58831637	22040.743971628237	389.29140127389
0	61083088	22100.767279250495	391.05307855626
0	63333244	22160.790032277278	410.258492569
0	65583014	22220.815662375293	407.49469214437
0	67834671	22280.839182188183	405.82006369427
0	70085078	22340.865110932888	393.36571125265
0	72335657	22400.882105849238	438.99309978769
0	74585656	22460.908553792793	401.77866242038
0	76834514	22520.931155334057	383.19692144374
0	79087330	22580.950086329172	410.85828025478
0	81338053	22640.977041503958	436.25743099788
0	83588562	22701.000240199806	401.03184713376
0	85839715	22761.024778664352	398.7813163482
0	88090087	22821.039631047024	421.73354564756
0	90340024	22881.060765974711	431.78184713376
0	92590664	22941.078116819071	391.18789808917
0	94841258	23001.095508193137	416.59978768577
0	97092379	23061.116605309397	418.77707006369
0	99343119	23121.13710371005	421.28290870488
0	101592914	23181.156806529528	430.24363057325
0	103844115	23241.179725393719	420.22080679406
0	106093996	23301.202499348361	427.09978768577
0	108346152	23361.225455168153	390.66348195329
0	110599407	23421.251888352578	407.08333333333
0	112850589	23481.268104618128	431.48248407643
0	115098488	23541.284438621374	400.66401273885
0	117351141	23601.30511845715	392.01804670913
1	2	20000	2048
1	628957	20060	53.958158995816
1	1354809	20120.022718838742	42.871559633028
1	2159463	20180.043084268355	44.440040650407
1	3028990	20240.067375188073	61.758549222798
1	4006565	20300.084822232592	359.41889117043
1	5057084	20360.108097437789	463.11211211211
1	6207537	20420.130326420825	927.60232783705
1	7431992	20480.153065826729	1184.1365807068
1	8728218	20540.176729413536	1608.4903846154
1	10091588	20600.192282659558	1583.1578947368
1	11552562	20660.211285570222	1632.8367952522
1	13069065	20720.236000643374	1788.168356998
1	14630944	20780.259753999154	1771.3329949239
1	16251859	20840.277537403523	1913.7763975155
1	17936527	20900.299973566427	1772.4225206612
1	19683690	20960.322764829577	1769.6982310094
1	21541841	21020.348461641964	1591.7985386221
1	23478980	21080.37349743345	1497.6551724138
1	25474657	21140.399063560366	1343.0878099174
1	27560729	21200.419782348402	1200.7507629705
1	29714710	21260.444773125046	997.53830645161
1	31898079	21320.463585422149	940.16901408451
1	34100146	21380.488396746056	909.41783567134
1	36338394	21440.512083534973	865.62811565304
1	38583759	21500.533969600276	806.93426294821
1	40830787	21560.555526842284	776.61592039801
1	43079101	21620.580411206781	766.94333996024
1	45327713	21680.603926466107	793.47514910537
1	47579501	21740.62744021221	794.17693836978
1	49829566	21800.654516926476	801.63717693837
1	52080404	21860.678707286275	812.24652087475
1	54330686	21920.701912552064	790.78131212724
1	56580937	21980.722902191895	782.38469184891
1	58831637	22040.743971628237	729.77611940299
1	61083088	22100.767279250495	731.84095427435
1	63333244	22160.790032277278	767.97813121272
1	65583014	22220.815662375293	763.14115308151
1	67834671	22280.839182188183	760.00497017893
1	70085078	22340.865110932888	736.68091451292
1	72335657	22400.882105849238	822.13021868787
1	74585656	22460.908553792793	752.43638170974
1	76834514	22520.931155334057	717.38270377734
1	79087330	22580.950086329172	768.42246520875
1	81338053	22640.977041503958	817.0069582505
1	83588562	22701.000240199806	751.03777335984
1	85839715	22761.024778664352	746.82306163022
1	88090087	22821.039631047024	789.80715705765
1	90340024	22881.060765974711	808.62524850895
1	92590664	22941.078116819071	732.34791252485
1	94841258	23001.095508193137	780.19284294235
1	97092379	23061.116605309397	784.2703777336
1	99343119	23121.13710371005	788.96322067594
1	101592914	23181.156806529528	805.74453280318
1	103844115	23241.179725393719	786.63618290258
1	106093996	23301.202499348361	799.85685884692
1	108346152	23361.225455168153	731.62027833002
1	110599407	23421.251888352578	761.09840954274
1	112850589	23481.268104618128	806.28330019881
1	115098488	23541.284438621374	750.34890656064
1	117351141	23601.30511845715	734.07355864811
2	2	20000	0
2	628957	20060	0
2	1354809	20120.022718838742	0
2	2159463	20180.043084268355	0
2	3028990	20240.067375188073	0
2	4006565	20300.084822232592	0
2	5057084	20360.108097437789	0
2	6207537	20420.130326420825	0
2	7431992	20480.153065826729	0
2	8728218	20540.176729413536	0
2	10091588	20600.192282659558	18.618181818182
2	11552562	20660.211285570222	32.581818181818
2	13069065	20720.236000643374	32
2	14630944	20780.259753999154	0
2	16251859	20840.277537403523	0
2	17936527	20900.299973566427	9.3090909090909
2	19683690	20960.322764829577	22.456140350877
2	21541841	21020.348461641964	0
2	23478980	21080.37349743345	6.5384615384615
2	25474657	21140.399063560366	10.836363636364
2	27560729	21200.419782348402	12.592592592593
2	29714710	21260.444773125046	0
2	31898079	21320.463585422149	0
2	34100146	21380.488396746056	5.4468085106383
2	36338394	21440.512083534973	0
2	38583759	21500.533969600276	0
2	40830787	21560.555526842284	0
2	43079101	21620.580411206781	0
2	45327713	21680.603926466107	0
2	47579501	21740.62744021221	14.769230769231
2	49829566	21800.654516926476	11.705882352941
2	52080404	21860.678707286275	0
2	54330686	21920.701912552064	0
2	56580937	21980.722902191895	0
2	58831637	22040.743971628237	0
2	61083088	22100.767279250495	9.4814814814815
2	63333244	22160.790032277278	6.6862745098039
2	65583014	22220.815662375293	0
2	67834671	22280.839182188183	0
2	70085078	22340.865110932888	0
2	72335657	22400.882105849238	0
2	74585656	22460.908553792793	0
2	76834514	22520.931155334057	4.9230769230769
2	79087330	22580.950086329172	20.078431372549
2	81338053	22640.977041503958	0
2	83588562	22701.000240199806	0
2	85839715	22761.024778664352	0
2	88090087	22821.039631047024	0
2	90340024	22881.060765974711	0
2	92590664	22941.078116819071	5.3333333333333
2	94841258	23001.095508193137	0
2	97092379	23061.116605309397	0
2	99343119	23121.13710371005	0
2	101592914	23181.156806529528	0
2	103844115	23241.179725393719	6.6666666666667
2	106093996	23301.202499348361	0
2	108346152	23361.225455168153	0
2	110599407	23421.251888352578	23.272727272727
2	112850589	23481.268104618128	34.461538461538
2	115098488	23541.284438621374	0
2	117351141	23601.30511845715	1.6153846153846
3	2	20000	400
3	628957	20060	1430
3	1354809	20120.022718838742	1540
3	2159463	20180.043084268355	1598
3	3028990	20240.067375188073	1639
3	4006565	20300.084822232592	1690
3	5057084	20360.108097437789	1747
3	6207537	20420.130326420825	1799
3	7431992	20480.153065826729	1841
3	8728218	20540.176729413536	1855
3	10091588	20600.192282659558	1867
3	11552562	20660.211285570222	1874
3	13069065	20720.236000643374	1878
3	14630944	20780.259753999154	1880
3	16251859	20840.277537403523	1881
3	17936527	20900.299973566427	1882
3	19683690	20960.322764829577	1882
3	21541841	21020.348461641964	1882
3	23478980	21080.37349743345	1883
3	25474657	21140.399063560366	1884
3	27560729	21200.419782348402	1884
3	29714710	21260.444773125046	1884
3	31898079	21320.463585422149	1884
3	34100146	21380.488396746056	1884
3	36338394	21440.512083534973	1884
3	38583759	21500.533969600276	1884
3	40830787	21560.555526842284	1884
3	43079101	21620.580411206781	1884
3	45327713	21680.603926466107	1884
3	47579501	21740.62744021221	1884
3	49829566	21800.654516926476	1884
3	52080404	21860.678707286275	1884
3	54330686	21920.701912552064	1884
3	56580937	21980.722902191895	1884
3	58831637	22040.743971628237	1884
3	61083088	22100.767279250495	1884
3	63333244	22160.790032277278	1884
3	65583014	22220.815662375293	1884
3	67834671	22280.839182188183	1884
3	70085078	22340.865110932888	1884
3	72335657	22400.882105849238	1884
3	74585656	22460.908553792793	1884
3	76834514	22520.931155334057	1884
3	79087330	22580.950086329172	1884
3	81338053	22640.977041503958	1884
3	83588562	22701.000240199806	1884
3	85839715	22761.024778664352	1884
3	88090087	22821.039631047024	1884
3	90340024	22881.060765974711	1884
3	92590664	22941.078116819071	1884
3	94841258	23001.095508193137	1884
3	97092379	23061.116605309397	1884
3	99343119	23121.13710371005	1884
3	101592914	23181.156806529528	1884
3	103844115	23241.179725393719	1884
3	106093996	23301.202499348361	1884
3	108346152	23361.225455168153	1884
3	110599407	23421.251888352578	1884
3	112850589	23481.268104618128	1884
3	115098488	23541.284438621374	1884
3	117351141	23601.30511845715	1884
4	2	20000	400
4	628957	20060	956
4	1354809	20120.022718838742	981
4	2159463	20180.043084268355	984
4	3028990	20240.067375188073	965
4	4006565	20300.084822232592	974
4	5057084	20360.108097437789	999
4	6207537	20420.130326420825	1031
4	7431992	20480.153065826729	1047
4	8728218	20540.176729413536	1040
4	10091588	20600.192282659558	1026
4	11552562	20660.211285570222	1011
4	13069065	20720.236000643374	986
4	14630944	20780.259753999154	985
4	16251859	20840.277537403523	966
4	17936527	20900.299973566427	968
4	19683690	20960.322764829577	961
4	21541841	21020.348461641964	958
4	23478980	21080.37349743345	957
4	25474657	21140.399063560366	968
4	27560729	21200.419782348402	983
4	29714710	21260.444773125046	992
4	31898079	21320.463585422149	994
4	34100146	21380.488396746056	998
4	36338394	21440.512083534973	1003
4	38583759	21500.533969600276	1004
4	40830787	21560.555526842284	1005
4	43079101	21620.580411206781	1006
4	45327713	21680.603926466107	1006
4	47579501	21740.62744021221	1006
4	49829566	21800.654516926476	1006
4	52080404	21860.678707286275	1006
4	54330686	21920.701912552064	1006
4	56580937	21980.722902191895	1006
4	58831637	22040.743971628237	1005
4	61083088	22100.767279250495	1006
4	63333244	22160.790032277278	1006
4	65583014	22220.815662375293	1006
4	67834671	22280.839182188183	1006
4	70085078	22340.865110932888	1006
4	72335657	22400.882105849238	1006
4	74585656	22460.908553792793	1006
4	76834514	22520.931155334057	1006
4	79087330	22580.950086329172	1006
4	81338053	22640.977041503958	1006
4	83588562	22701.000240199806	1006
4	85839715	22761.024778664352	1006
4	88090087	22821.039631047024	1006
4	90340024	22881.060765974711	1006
4	92590664	22941.078116819071	1006
4	94841258	23001.095508193137	1006
4	97092379	23061.116605309397	1006
4	99343119	23121.13710371005	1006
4	101592914	23181.156806529528	1006
4	103844115	23241.179725393719	1006
4	106093996	23301.202499348361	1006
4	108346152	23361.225455168153	1006
4	110599407	23421.251888352578	1006
4	112850589	23481.268104618128	1006
4	115098488	23541.284438621374	1006
4	117351141	23601.30511845715	1006
5	2	20000	0
5	628957	20060	0
5	1354809	20120.022718838742	0
5	2159463	20180.043084268355	0
5	3028990	20240.067375188073	9
5	4006565	20300.084822232592	7
5	5057084	20360.108097437789	3
5	6207537	20420.130326420825	10
5	7431992	20480.153065826729	30
5	8728218	20540.176729413536	55
5	10091588	20600.192282659558	55
5	11552562	20660.211285570222	55
5	13069065	20720.236000643374	56
5	14630944	20780.259753999154	56
5	16251859	20840.277537403523	55
5	17936527	20900.299973566427	55
5	19683690	20960.322764829577	57
5	21541841	21020.348461641964	55
5	23478980	21080.37349743345	52
5	25474657	21140.399063560366	55
5	27560729	21200.419782348402	54
5	29714710	21260.444773125046	54
5	31898079	21320.463585422149	54
5	34100146	21380.488396746056	47
5	36338394	21440.512083534973	52
5	38583759	21500.533969600276	51
5	40830787	21560.555526842284	53
5	43079101	21620.580411206781	52
5	45327713	21680.603926466107	53
5	47579501	21740.62744021221	52
5	49829566	21800.654516926476	51
5	52080404	21860.678707286275	52
5	54330686	21920.701912552064	51
5	56580937	21980.722902191895	52
5	58831637	22040.743971628237	48
5	61083088	22100.767279250495	54
5	63333244	22160.790032277278	51
5	65583014	22220.815662375293	49
5	67834671	22280.839182188183	51
5	70085078	22340.865110932888	51
5	72335657	22400.882105849238	52
5	74585656	22460.908553792793	54
5	76834514	22520.931155334057	52
5	79087330	22580.950086329172	51
5	81338053	22640.977041503958	52
5	83588562	22701.000240199806	51
5	85839715	22761.024778664352	52
5	88090087	22821.039631047024	51
5	90340024	22881.060765974711	52
5	92590664	22941.078116819071	48
5	94841258	23001.095508193137	52
5	97092379	23061.116605309397	51
5	99343119	23121.13710371005	52
5	101592914	23181.156806529528	53
5	103844115	23241.179725393719	51
5	106093996	23301.202499348361	50
5	108346152	23361.225455168153	53
5	110599407	23421.251888352578	55
5	112850589	23481.268104618128	52
5	115098488	23541.284438621374	52
5	117351141	23601.30511845715	52
6	2	20000	400
6	628957	20060	956
6	1354809	20120.022718838742	981
6	2159463	20180.043084268355	984
6	3028990	20240.067375188073	974
6	4006565	20300.084822232592	981
6	5057084	20360.108097437789	1002
6	6207537	20420.130326420825	1041
6	7431992	20480.153065826729	1077
6	8728218	20540.176729413536	1095
6	10091588	20600.192282659558	1081
6	11552562	20660.211285570222	1066
6	13069065	20720.236000643374	1042
6	14630944	20780.259753999154	1041
6	16251859	20840.277537403523	1021
6	17936527	20900.299973566427	1023
6	19683690	20960.322764829577	1018
6	21541841	21020.348461641964	1013
6	23478980	21080.37349743345	1009
6	25474657	21140.399063560366	1023
6	27560729	21200.419782348402	1037
6	29714710	21260.444773125046	1046
6	31898079	21320.463585422149	1048
6	34100146	21380.488396746056	1045
6	36338394	21440.512083534973	1055
6	38583759	21500.533969600276	1055
6	40830787	21560.555526842284	1058
6	43079101	21620.580411206781	1058
6	45327713	21680.603926466107	1059
6	47579501	21740.62744021221	1058
6	49829566	21800.654516926476	1057
6	52080404	21860.678707286275	1058
6	54330686	21920.701912552064	1057
6	56580937	21980.722902191895	1058
6	58831637	22040.743971628237	1053
6	61083088	22100.767279250495	1060
6	63333244	22160.790032277278	1057
6	65583014	22220.815662375293	1055
6	67834671	22280.839182188183	1057
6	70085078	22340.865110932888	1057
6	72335657	22400.882105849238	1058
6	74585656	22460.908553792793	1060
6	76834514	22520.931155334057	1058
6	79087330	22580.950086329172	1057
6	81338053	22640.977041503958	1058
6	83588562	22701.000240199806	1057
6	85839715	22761.024778664352	1058
6	88090087	22821.039631047024	1057
6	90340024	22881.060765974711	1058
6	92590664	22941.078116819071	1054
6	94841258	23001.095508193137	1058
6	97092379	23061.116605309397	1057
6	99343119	23121.13710371005	1058
6	101592914	23181.156806529528	1059
6	103844115	23241.179725393719	1057
6	106093996	23301.202499348361	1056
6	108346152	23361.225455168153	1059
6	110599407	23421.251888352578	1061
6	112850589	23481.268104618128	1058
6	115098488	23541.284438621374	1058
6	117351141	23601.30511845715	1058
7	2	20000	5052
7	628957	20060	33
7	1354809	20120.022718838742	71
7	2159463	20180.043084268355	136
7	3028990	20240.067375188073	596
7	4006565	20300.084822232592	4156
7	5057084	20360.108097437789	5089
7	6207537	20420.130326420825	17680
7	7431992	20480.153065826729	23182
7	8728218	20540.176729413536	30940
7	10091588	20600.192282659558	29531
7	11552562	20660.211285570222	29716
7	13069065	20720.236000643374	30241
7	14630944	20780.259753999154	28137
7	16251859	20840.277537403523	29672
7	17936527	20900.299973566427	27950
7	19683690	20960.322764829577	28582
7	21541841	21020.348461641964	25763
7	23478980	21080.37349743345	26474
7	25474657	21140.399063560366	25028
7	27560729	21200.419782348402	23698
7	29714710	21260.444773125046	22450
7	31898079	21320.463585422149	22215
7	34100146	21380.488396746056	22529
7	36338394	21440.512083534973	21508
7	38583759	21500.533969600276	21825
7	40830787	21560.555526842284	22489
7	43079101	21620.580411206781	20428
7	45327713	21680.603926466107	21759
7	47579501	21740.62744021221	22344
7	49829566	21800.654516926476	22241
7	52080404	21860.678707286275	21381
7	54330686	21920.701912552064	21323
7	56580937	21980.722902191895	20920
7	58831637	22040.743971628237	20955
7	61083088	22100.767279250495	20345
7	63333244	22160.790032277278	21744
7	65583014	22220.815662375293	21468
7	67834671	22280.839182188183	21116
7	70085078	22340.865110932888	21831
7	72335657	22400.882105849238	21640
7	74585656	22460.908553792793	21499
7	76834514	22520.931155334057	20319
7	79087330	22580.950086329172	21330
7	81338053	22640.977041503958	21635
7	83588562	22701.000240199806	20732
7	85839715	22761.024778664352	20890
7	88090087	22821.039631047024	20916
7	90340024	22881.060765974711	22881
7	92590664	22941.078116819071	20644
7	94841258	23001.095508193137	21145
7	97092379	23061.116605309397	22205
7	99343119	23121.13710371005	20775
7	101592914	23181.156806529528	21511
7	103844115	23241.179725393719	21703
7	106093996	23301.202499348361	21850
7	108346152	23361.225455168153	20378
7	110599407	23421.251888352578	21552
7	112850589	23481.268104618128	20836
7	115098488	23541.284438621374	20447
7	117351141	23601.30511845715	20777
8	2	20000	5052
8	628957	20060	46959
8	1354809	20120.022718838742	46891
8	2159463	20180.043084268355	46876
8	3028990	20240.067375188073	46892
8	4006565	20300.084822232592	46509
8	5057084	20360.108097437789	46377
8	6207537	20420.130326420825	46229
8	7431992	20480.153065826729	45884
8	8728218	20540.176729413536	45778
8	10091588	20600.192282659558	45555
8	11552562	20660.211285570222	45193
8	13069065	20720.236000643374	45118
8	14630944	20780.259753999154	44786
8	16251859	20840.277537403523	44411
8	17936527	20900.299973566427	44063
8	19683690	20960.322764829577	43371
8	21541841	21020.348461641964	42520
8	23478980	21080.37349743345	41600
8	25474657	21140.399063560366	41527
8	27560729	21200.419782348402	41366
8	29714710	21260.444773125046	41150
8	31898079	21320.463585422149	40821
8	34100146	21380.488396746056	40763
8	36338394	21440.512083534973	40157
8	38583759	21500.533969600276	40403
8	40830787	21560.555526842284	40608
8	43079101	21620.580411206781	40466
8	45327713	21680.603926466107	40496
8	47579501	21740.62744021221	39779
8	49829566	21800.654516926476	40012
8	52080404	21860.678707286275	39933
8	54330686	21920.701912552064	40468
8	56580937	21980.722902191895	40443
8	58831637	22040.743971628237	40633
8	61083088	22100.767279250495	40552
8	63333244	22160.790032277278	40582
8	65583014	22220.815662375293	40522
8	67834671	22280.839182188183	40455
8	70085078	22340.865110932888	40496
8	72335657	22400.882105849238	40659
8	74585656	22460.908553792793	40636
8	76834514	22520.931155334057	40333
8	79087330	22580.950086329172	40652
8	81338053	22640.977041503958	40550
8	83588562	22701.000240199806	40479
8	85839715	22761.024778664352	40453
8	88090087	22821.039631047024	40513
8	90340024	22881.060765974711	40493
8	92590664	22941.078116819071	40376
8	94841258	23001.095508193137	40634
8	97092379	23061.116605309397	40593
8	99343119	23121.13710371005	40593
8	101592914	23181.156806529528	40405
8	103844115	23241.179725393719	40444
8	106093996	23301.202499348361	40555
8	108346152	23361.225455168153	40655
8	110599407	23421.251888352578	40608
8	112850589	23481.268104618128	40632
8	115098488	23541.284438621374	40460
8	117351141	23601.30511845715	40469
9	2	20000	0
9	628957	20060	0
9	1354809	20120.022718838742	0
9	2159463	20180.043084268355	0
9	3028990	20240.067375188073	0
9	4006565	20300.084822232592	0
9	5057084	20360.108097437789	0
9	6207537	20420.130326420825	0
9	7431992	20480.153065826729	0
9	8728218	20540.176729413536	0
9	10091588	20600.192282659558	4
9	11552562	20660.211285570222	3
9	13069065	20720.236000643374	2
9	14630944	20780.259753999154	0
9	16251859	20840.277537403523	0
9	17936527	20900.299973566427	2
9	19683690	20960.322764829577	3
9	21541841	21020.348461641964	0
9	23478980	21080.37349743345	2
9	25474657	21140.399063560366	3
9	27560729	21200.419782348402	1
9	29714710	21260.444773125046	0
9	31898079	21320.463585422149	2
9	34100146	21380.488396746056	1
9	36338394	21440.512083534973	0
9	38583759	21500.533969600276	0
9	40830787	21560.555526842284	0
9	43079101	21620.580411206781	0
9	45327713	21680.603926466107	1
9	47579501	21740.62744021221	3
9	49829566	21800.654516926476	2
9	52080404	21860.678707286275	0
9	54330686	21920.701912552064	0
9	56580937	21980.722902191895	0
9	58831637	22040.743971628237	0
9	61083088	22100.767279250495	2
9	63333244	22160.790032277278	2
9	65583014	22220.815662375293	0
9	67834671	22280.839182188183	1
9	70085078	22340.865110932888	0
9	72335657	22400.882105849238	0
9	74585656	22460.908553792793	0
9	76834514	22520.931155334057	1
9	79087330	22580.950086329172	3
9	81338053	22640.977041503958	0
9	83588562	22701.000240199806	0
9	85839715	22761.024778664352	0
9	88090087	22821.039631047024	0
9	90340024	22881.060765974711	0
9	92590664	22941.078116819071	1
9	94841258	23001.095508193137	0
9	97092379	23061.116605309397	1
9	99343119	23121.13710371005	1
9	101592914	23181.156806529528	0
9	103844115	23241.179725393719	2
9	106093996	23301.202499348361	0
9	108346152	23361.225455168153	0
9	110599407	23421.251888352578	5
9	112850589	23481.268104618128	2
9	115098488	23541.284438621374	0
9	117351141	23601.30511845715	3
10	2	20000	0
10	628957	20060	49967
10	1354809	20120.022718838742	49929
10	2159463	20180.043084268355	49864
10	3028990	20240.067375188073	49386
10	4006565	20300.084822232592	45832
10	5057084	20360.108097437789	44901
10	6207537	20420.130326420825	32284
10	7431992	20480.153065826729	26694
10	8728218	20540.176729413536	18876
10	10091588	20600.192282659558	20259
10	11552562	20660.211285570222	20112
10	13069065	20720.236000643374	19562
10	14630944	20780.259753999154	21677
10	16251859	20840.277537403523	20175
10	17936527	20900.299973566427	21880
10	19683690	20960.322764829577	21256
10	21541841	21020.348461641964	24096
10	23478980	21080.37349743345	23392
10	25474657	21140.399063560366	24827
10	27560729	21200.419782348402	26162
10	29714710	21260.444773125046	27404
10	31898079	21320.463585422149	27671
10	34100146	21380.488396746056	27368
10	36338394	21440.512083534973	28370
10	38583759	21500.533969600276	28050
10	40830787	21560.555526842284	27389
10	43079101	21620.580411206781	29470
10	45327713	21680.603926466107	28125
10	47579501	21740.62744021221	27532
10	49829566	21800.654516926476	27639
10	52080404	21860.678707286275	28501
10	54330686	21920.701912552064	28566
10	56580937	21980.722902191895	28950
10	58831637	22040.743971628237	28936
10	61083088	22100.767279250495	29532
10	63333244	22160.790032277278	28141
10	65583014	22220.815662375293	28427
10	67834671	22280.839182188183	28768
10	70085078	22340.865110932888	28052
10	72335657	22400.882105849238	28233
10	74585656	22460.908553792793	28374
10	76834514	22520.931155334057	29562
10	79087330	22580.950086329172	28543
10	81338053	22640.977041503958	28242
10	83588562	22701.000240199806	29156
10	85839715	22761.024778664352	29000
10	88090087	22821.039631047024	28970
10	90340024	22881.060765974711	27007
10	92590664	22941.078116819071	29244
10	94841258	23001.095508193137	28726
10	97092379	23061.116605309397	27682
10	99343119	23121.13710371005	29105
10	101592914	23181.156806529528	28365
10	103844115	23241.179725393719	28177
10	106093996	23301.202499348361	28033
10	108346152	23361.225455168153	29497
10	110599407	23421.251888352578	28320
10	112850589	23481.268104618128	29049
10	115098488	23541.284438621374	29433
10	117351141	23601.30511845715	29101
11	2	20000	5052
11	628957	20060	102334
11	1354809	20120.022718838742	124371
11	2159463	20180.043084268355	139649
11	3028990	20240.067375188073	153755
11	4006565	20300.084822232592	174528
11	5057084	20360.108097437789	188467
11	6207537	20420.130326420825	207621
11	7431992	20480.153065826729	222543
11	8728218	20540.176729413536	237551
11	10091588	20600.192282659558	251264
11	11552562	20660.211285570222	271439
11	13069065	20720.236000643374	283343
11	14630944	20780.259753999154	291691
11	16251859	20840.277537403523	304185
11	17936527	20900.299973566427	317250
11	19683690	20960.322764829577	330046
11	21541841	21020.348461641964	352580
11	23478980	21080.37349743345	368655
11	25474657	21140.399063560366	380508
11	27560729	21200.419782348402	398630
11	29714710	21260.444773125046	412533
11	31898079	21320.463585422149	418217
11	34100146	21380.488396746056	422673
11	36338394	21440.512083534973	428803
11	38583759	21500.533969600276	430755
11	40830787	21560.555526842284	431464
11	43079101	21620.580411206781	431539
11	45327713	21680.603926466107	431607
11	47579501	21740.62744021221	431980
11	49829566	21800.654516926476	431980
11	52080404	21860.678707286275	431980
11	54330686	21920.701912552064	431980
11	56580937	21980.722902191895	431980
11	58831637	22040.743971628237	431980
11	61083088	22100.767279250495	431979
11	63333244	22160.790032277278	431980
11	65583014	22220.815662375293	431980
11	67834671	22280.839182188183	431980
11	70085078	22340.865110932888	431980
11	72335657	22400.882105849238	431980
11	74585656	22460.908553792793	431980
11	76834514	22520.931155334057	431980
11	79087330	22580.950086329172	431980
11	81338053	22640.977041503958	431980
11	83588562	22701.000240199806	431980
11	85839715	22761.024778664352	431980
11	88090087	22821.039631047024	431980
11	90340024	22881.060765974711	431980
11	92590664	22941.078116819071	431980
11	94841258	23001.095508193137	431980
11	97092379	23061.116605309397	431980
11	99343119	23121.13710371005	431980
11	101592914	23181.156806529528	431980
11	103844115	23241.179725393719	431980
11	106093996	23301.202499348361	431980
11	108346152	23361.225455168153	431980
11	110599407	23421.251888352578	431967
11	112850589	23481.268104618128	431980
11	115098488	23541.284438621374	431986
11	117351141	23601.30511845715	431986
12	2	20000	0
12	628957	20060	0
12	1354809	20120.022718838742	0
12	2159463	20180.043084268355	0
12	3028990	20240.067375188073	18
12	4006565	20300.084822232592	12
12	5057084	20360.108097437789	10
12	6207537	20420.130326420825	36
12	7431992	20480.153065826729	124
12	8728218	20540.176729413536	184
12	10091588	20600.192282659558	214
12	11552562	20660.211285570222	175
12	13069065	20720.236000643374	199
12	14630944	20780.259753999154	186
12	16251859	20840.277537403523	153
12	17936527	20900.299973566427	172
12	19683690	20960.322764829577	165
12	21541841	21020.348461641964	141
12	23478980	21080.37349743345	136
12	25474657	21140.399063560366	148
12	27560729	21200.419782348402	141
12	29714710	21260.444773125046	146
12	31898079	21320.463585422149	116
12	34100146	21380.488396746056	104
12	36338394	21440.512083534973	122
12	38583759	21500.533969600276	125
12	40830787	21560.555526842284	122
12	43079101	21620.580411206781	102
12	45327713	21680.603926466107	117
12	47579501	21740.62744021221	127
12	49829566	21800.654516926476	122
12	52080404	21860.678707286275	118
12	54330686	21920.701912552064	111
12	56580937	21980.722902191895	130
12	58831637	22040.743971628237	109
12	61083088	22100.767279250495	125
12	63333244	22160.790032277278	117
12	65583014	22220.815662375293	105
12	67834671	22280.839182188183	117
12	70085078	22340.865110932888	117
12	72335657	22400.882105849238	127
12	74585656	22460.908553792793	127
12	76834514	22520.931155334057	120
12	79087330	22580.950086329172	130
12	81338053	22640.977041503958	123
12	83588562	22701.000240199806	112
12	85839715	22761.024778664352	110
12	88090087	22821.039631047024	114
12	90340024	22881.060765974711	112
12	92590664	22941.078116819071	113
12	94841258	23001.095508193137	129
12	97092379	23061.116605309397	114
12	99343119	23121.13710371005	121
12	101592914	23181.156806529528	124
12	103844115	23241.179725393719	122
12	106093996	23301.202499348361	117
12	108346152	23361.225455168153	125
12	110599407	23421.251888352578	133
12	112850589	23481.268104618128	117
12	115098488	23541.284438621374	120
12	117351141	23601.30511845715	125

