version 2
run MoST-MaliciousCoordinated-1-20201102-19:15:24-7576
attr configname MoST-MaliciousCoordinated
attr datetime 20201102-19:15:24
attr experiment MoST-MaliciousCoordinated
attr inifile omnetpp.ini
attr iterationvars $0=true
attr iterationvarsf true-
attr measurement $0=true
attr network CoordinatedAttackScenario
attr processid 7576
attr repetition 0
attr replication #0
attr resultdir results
attr runnumber 1
attr seedset 1
param *.playgroundSizeX 10500m
param *.playgroundSizeY 7000m
param *.playgroundSizeZ 50m
param *.manager.launchConfig "xmldoc(\"most.launchd.xml\")"
param *.manager.connectAt 14400s
param *.manager.firstStepAt 20000s
param *.manager.updateInterval 250ms
param *.manager.moduleType "\"passenger1=org.car2x.veins.subprojects.simulator.nodes.Vehicle passenger2a=org.car2x.veins.subprojects.simulator.nodes.Vehicle passenger2b=org.car2x.veins.subprojects.simulator.nodes.Vehicle passenger3=org.car2x.veins.subprojects.simulator.nodes.Vehicle passenger4=org.car2x.veins.subprojects.simulator.nodes.Vehicle *=org.car2x.veins.subprojects.simulator.nodes.NonPartakingVehicle\""
param *.manager.moduleName "\"passenger1=node passenger2a=node passenger2b=node passenger3=node passenger4=node *=other\""
param *.manager.moduleDisplayString "\"passenger1='i=veins/node/car;is=vs' passenger2a='i=veins/node/car;is=vs' passenger2b='i=veins/node/car;is=vs' passenger3='i=veins/node/car;is=vs' passenger4='i=veins/node/car;is=vs' *='i=veins/node/bicycle;is=vs'\""
param *.manager.secondModuleType "\"passenger1=org.car2x.veins.subprojects.simulator.nodes.Vehicle passenger2a=org.car2x.veins.subprojects.simulator.nodes.Vehicle passenger2b=org.car2x.veins.subprojects.simulator.nodes.Vehicle passenger3=org.car2x.veins.subprojects.simulator.nodes.Vehicle passenger4=org.car2x.veins.subprojects.simulator.nodes.Vehicle *=org.car2x.veins.subprojects.simulator.nodes.NonPartakingVehicle\""
param *.rsuPlacer.rows 20
param *.rsuPlacer.cols 20
param *.rsuPlacer.rsuDisplayString "\"i=veins/node/cone;is=vs\""
param *.node2[*].app.blockchain.validatorModule "\"org.car2x.veins.subprojects.simulator.modules.validation.PlausibilityValidation\""
param *.node2[*].app.generatorModule "\"org.car2x.veins.subprojects.simulator.modules.transactions.OffsetTransactionGenerator\""
param *.node2[*].app.transactionGenerator.answerBack true
param *.node2[*].app.transactionGenerator.changeOffset true
param *.node2[*].app.transactionGenerator.transactionsPerTurn 4
param *.**.app.blockchain.statusUpdateModule "\"org.car2x.veins.subprojects.simulator.modules.status.FixedReward\""
param *.**.app.transactionGenerator.maxOffset 6000m
param *.**.app.transactionGenerator.minOffset 4500m
param *.manager.vehicleCap 1500
param *.manager.ratio 0.05
param *.**.app.transactionGenerator.range 15m
param *.**.wave.range 15m
param *.logger.logFile "\"results/MoST-MaliciousCoordinated-true--1.blockchain.log\""
param *.addressTable.logFile "\"results/MoST-MaliciousCoordinated-true--1.addresses.log\""
param *.maliciousNodes 0
param *.nodePlacer.x 500
param *.nodePlacer.y 500
param *.**.app.blockchain.statusUpdater.maxReward 4096
param *.**.app.blockchain.statusUpdater.reward 256
param *.**.app.blockchain.statusUpdater.penalty 512
param *.**.app.blockchain.statusUpdater.startingReward 64
param *.**.app.blockchain.blockValidator.decayRate 0.3
param *.**.app.blockchain.blockValidator.varianceWeight 0.67
param *.**.app.blockchain.blockValidator.maxConflicts 2
param *.**.app.blockchain.blockchain.storedChainLength 10
param *.**.app.blockchain.blockValidator.depth 3
param *.**.app.blockchain.blockValidator.threshold 0.1
param *.**.app.transactionPeriod 5s
param *.manager.secondModuleType "\"org.car2x.veins.subprojects.simulator.nodes.Vehicle\""
param *.manager.ratio 0.1
param *.rsuPlacer.rows 16
param *.rsuPlacer.cols 16
param *.rsuPlacer.rsuDisplayString "\"i=veins/node/cone;is=vs\""
param *.**.app.blockchain.statusUpdater.rsuStartingReward 2048
param *.**.app.blockchain.statusUpdater.startingReward 1024
param *.**.app.blockchain.statusUpdater.reward 512
param *.**.app.blockchain.statusUpdater.penalty 2048
param *.**.app.blockchain.statusUpdater.maxReward 4096
param *.**.app.blockchain.consensusModule "\"org.car2x.veins.subprojects.simulator.modules.consensus.BaseVotingModel\""
param *.**.app.blockchain.filterModule "\"org.car2x.veins.subprojects.simulator.modules.blocks.SimpleFilter\""
param *.**.app.blockchain.harvesterModule "\"org.car2x.veins.subprojects.simulator.modules.harvesting.DeterministicHarvester\""
param *.**.app.blockchain.statusUpdateModule "\"org.car2x.veins.subprojects.simulator.modules.status.FixedReward\""
param *.**.app.blockchain.consensusModel.harvesters 3
param *.**.app.blockchain.consensusModel.faultTolerance 6
param *.**.app.blockchain.consensusModel.timeout 3s
param *.**.app.transactionPeriod 1s
param *.**.app.transactionGenerator.range 40m
param *.**.app.applicationModule "\"org.car2x.veins.subprojects.simulator.modules.application.TestApplication\""
param *.node[*].app.blockchain.validatorModule "\"org.car2x.veins.subprojects.simulator.modules.validation.PlausibilityValidation\""
param *.node[*].app.generatorModule "\"org.car2x.veins.subprojects.simulator.modules.transactions.ValidTransactionGenerator\""
param *.node2[*].app.blockchain.validatorModule "\"org.car2x.veins.subprojects.simulator.modules.validation.SelfishValidator\""
param *.node2[*].app.generatorModule "\"org.car2x.veins.subprojects.simulator.modules.transactions.MimicTransactionGenerator\""
param *.node[*].veinsmobility.x 0
param *.node[*].veinsmobility.y 0
param *.node[*].veinsmobility.z 0
param *.node[*].veinsmobility.setHostSpeed false
param *.node[*].veinsmobility.accidentCount 0
param *.node[*].veinsmobility.accidentStart 0s
param *.node[*].veinsmobility.accidentDuration 0s
param *.node2[*].veinsmobility.x 0
param *.node2[*].veinsmobility.y 0
param *.node2[*].veinsmobility.z 0
param *.node2[*].veinsmobility.setHostSpeed false
param *.node2[*].veinsmobility.accidentCount 0
param *.node2[*].veinsmobility.accidentStart 0s
param *.node2[*].veinsmobility.accidentDuration 0s
param *.RSU[*].app.blockchain.validatorModule "\"org.car2x.veins.subprojects.simulator.modules.validation.PlausibilityValidation\""
param *.RSU[*].app.generatorModule "\"org.car2x.veins.subprojects.simulator.modules.transactions.ValidTransactionGenerator\""
param *.RSU[*].app.blockchain.blockchain.downloadAtStart false
param *.playgroundSizeX 2500m
param *.playgroundSizeY 2500m
param *.playgroundSizeZ 50m
param *.annotations.draw true
param *.obstacles.obstacles "xmldoc(\"config.xml\", \"//AnalogueModel[@type='SimpleObstacleShadowing']/obstacles\")"
param *.manager.updateInterval 1s
param *.manager.host "\"localhost\""
param *.manager.port 9999
param *.manager.autoShutdown true
param *.manager.launchConfig "xmldoc(\"erlangen.launchd.xml\")"
param *.manager.moduleType "\"org.car2x.veins.subprojects.simulator.nodes.Vehicle\""
param *.manager.secondModuleType "\"org.car2x.veins.subprojects.simulator.nodes.Vehicle\""
param *.manager.ratio 0.0
param *.connectionManager.sendDirect true
param *.connectionManager.maxInterfDist 2600m
param *.connectionManager.drawMaxIntfDist false
param *.**.wave.range 40m
param *.**.wave.speed 6Gbps
param *.**.inet.speed 10Gbps
param *.**.app.blockchain.blocksize 50000
param *.**.app.blockchain.blocktime 60s
param *.**.app.blockchain.blockValidator.maxSpeed 130kmph
param *.logger.logFile "\"results/MoST-MaliciousCoordinated-1.blockchain.log\""
param *.addressTable.logFile "\"results/MoST-MaliciousCoordinated-1.addresses.log\""
param *.RSU[*].app.blockchain.blockchain.downloadAtStart false
param *.**.app.blockchain.consensusModule "\"org.car2x.veins.subprojects.simulator.modules.consensus.TrustedEnvironment\""
param *.**.app.blockchain.filterModule "\"org.car2x.veins.subprojects.simulator.modules.blocks.SimpleFilter\""
param *.**.app.blockchain.harvesterModule "\"org.car2x.veins.subprojects.simulator.modules.harvesting.DeterministicHarvester\""
param *.**.app.blockchain.statusUpdateModule "\"org.car2x.veins.subprojects.simulator.modules.status.FixedReward\""
param *.**.app.blockchain.validatorModule "\"org.car2x.veins.subprojects.simulator.modules.validation.PlausibilityValidation\""
param *.**.app.generatorModule "\"org.car2x.veins.subprojects.simulator.modules.transactions.ValidTransactionGenerator\""
param *.**.app.applicationModule "\"org.car2x.veins.subprojects.simulator.modules.application.TestApplication\""
param *.**.app.transactionPeriod 1s
param *.**.app.transactionGenerator.range 40m
param *.**.app.blockchain.consensusModel.faultTolerance 6
param *.**.app.blockchain.consensusModel.timeout 2s
param *.node[*].veinsmobility.x 0
param *.node[*].veinsmobility.y 0
param *.node[*].veinsmobility.z 0
param *.node[*].veinsmobility.setHostSpeed false
param *.node[*].veinsmobility.accidentCount 0
param *.node[*].veinsmobility.accidentStart 0s
param *.node[*].veinsmobility.accidentDuration 0s

vector 0 CoordinatedAttackScenario.logger TotalReputationAverage ETV
vector 1 CoordinatedAttackScenario.logger ActiveType1ReputationAverage ETV
vector 2 CoordinatedAttackScenario.logger ActiveType2ReputationAverage ETV
vector 3 CoordinatedAttackScenario.logger NumberOfNodes ETV
vector 4 CoordinatedAttackScenario.logger NumberOfActiveType1Nodes ETV
vector 5 CoordinatedAttackScenario.logger NumberOfActiveType2Nodes ETV
vector 6 CoordinatedAttackScenario.logger NumberOfActiveNodes ETV
vector 7 CoordinatedAttackScenario.logger NumberOfAcceptableTransactions ETV
vector 8 CoordinatedAttackScenario.logger NumberOfPlausibleTransactions ETV
vector 9 CoordinatedAttackScenario.logger NumberOfAcceptedType2Transactions ETV
vector 10 CoordinatedAttackScenario.logger NumberOfUnacceptedType1Transactions ETV
vector 11 CoordinatedAttackScenario.logger TotalTransactions ETV
vector 12 CoordinatedAttackScenario.logger Type2Transactions ETV
0	2	20000	2048
0	660011	20060	46.618947368421
0	1419543	20120.023835355948	37.037589112119
0	2260038	20180.047696571478	53.955763239875
0	3174622	20240.071023251187	176.8304981774
0	4199789	20300.091753749791	225.12884160757
0	5301895	20360.109102043267	278.44323394495
0	6508454	20420.134489738516	531.36490250696
0	7791964	20480.153097521781	843.77644492912
0	9154818	20540.171298182689	934.76162162162
0	10585368	20600.188920135394	997.98341359016
0	12117149	20660.205453689717	1107.1487206823
0	13710214	20720.226535191031	1232.7929749867
0	15346128	20780.24873952028	1259.663834307
0	17046036	20840.269874498136	1316.5055762082
0	18816045	20900.289783742863	1341.5138004246
0	20658162	20960.307747852944	1262.5100849257
0	22618698	21020.329364176777	1203.0663481953
0	24661445	21080.351006619074	1163.75
0	26774199	21140.370283464393	1122.0987261146
0	28980393	21200.392298745176	992.65658174098
0	31260189	21260.420249927914	914.52123142251
0	33570425	21320.438982273369	840.72080679406
0	35904947	21380.459784548832	836.62685774947
0	38271585	21440.478612385277	825.86040339703
0	40649032	21500.494579712342	784.77070063694
0	43029388	21560.513847651713	744.00583864119
0	45410837	21620.534282078506	770.48407643312
0	47792138	21680.558105604583	767.07961783439
0	50174674	21740.580196567873	774.13535031847
0	52557454	21800.601211682431	761.72876857749
0	54939713	21860.626250561767	758.12101910828
0	57323501	21920.652345907236	760.8508492569
0	59705806	21980.678367698414	727.22717622081
0	62089704	22040.702739179346	771.88800424628
0	64471681	22100.729538775284	740.74097664544
0	66855863	22160.748900733543	796.16135881104
0	69237787	22220.769554107647	791.99893842887
0	71621350	22280.793024526503	737.25265392781
0	74006492	22340.813273620936	763.2059447983
0	76386627	22400.836917305039	790.78662420382
0	78769674	22460.860234808445	769.17197452229
0	81152587	22520.886255820607	755.74044585987
0	83536527	22580.911869193936	778.0695329087
0	85919572	22640.930797092615	723.97452229299
0	88301197	22700.951750469581	737.49309978769
0	90684075	22760.968334206634	772.18630573248
0	93068437	22820.989383137056	721.66985138004
0	95451484	22881.008677961601	733.50106157113
0	97834650	22941.031689154841	771.4076433121
0	100216489	23001.051730198981	781.3152866242
0	102600091	23061.076755290683	747.88853503185
0	104982379	23121.099888219225	767.15021231423
0	107365939	23181.124533641972	777.6406581741
0	109748376	23241.146398463349	741.51592356688
0	112131196	23301.168970381899	760.3593418259
0	114514022	23361.193125215033	790.12898089172
0	116897732	23421.218012664921	762.69639065817
0	119285396	23481.246083780312	744.88163481953
0	121668033	23541.270771474944	753.02016985138
0	124050961	23601.294114572415	754.79193205945
1	2	20000	2048
1	660011	20060	67.287211740042
1	1419543	20120.023835355948	57.097535934292
1	2260038	20180.047696571478	86.855680655067
1	3174622	20240.071023251187	299.48297213622
1	4199789	20300.091753749791	393.49689440994
1	5301895	20360.109102043267	492.93495934959
1	6508454	20420.134489738516	933.64769381747
1	7791964	20480.153097521781	1509.3863414634
1	9154818	20540.171298182689	1684.5908203125
1	10585368	20600.188920135394	1810.8417475728
1	12117149	20660.205453689717	2083.260782347
1	13710214	20720.226535191031	2354.0833333333
1	15346128	20780.24873952028	2420.3540816327
1	17046036	20840.269874498136	2576.3700623701
1	18816045	20900.289783742863	2621.7966804979
1	20658162	20960.307747852944	2462.2867494824
1	22618698	21020.329364176777	2373.3790575916
1	24661445	21080.351006619074	2288.627348643
1	26774199	21140.370283464393	2199.8272632674
1	28980393	21200.392298745176	1906.3863404689
1	31260189	21260.420249927914	1733.3581488934
1	33570425	21320.438982273369	1598.3027245207
1	35904947	21380.459784548832	1579.3637274549
1	38271585	21440.478612385277	1551.2671984048
1	40649032	21500.494579712342	1472.6175298805
1	43029388	21560.513847651713	1394.7333333333
1	45410837	21620.534282078506	1442.9343936382
1	47792138	21680.558105604583	1436.5586481113
1	50174674	21740.580196567873	1449.7723658052
1	52557454	21800.601211682431	1426.5377733598
1	54939713	21860.626250561767	1419.7813121272
1	57323501	21920.652345907236	1424.893638171
1	59705806	21980.678367698414	1361.9244532803
1	62089704	22040.702739179346	1445.5636182903
1	64471681	22100.729538775284	1387.2326043738
1	66855863	22160.748900733543	1491.0218687873
1	69237787	22220.769554107647	1483.226640159
1	71621350	22280.793024526503	1380.6998011928
1	74006492	22340.813273620936	1429.3041749503
1	76386627	22400.836917305039	1480.9562624254
1	78769674	22460.860234808445	1440.4771371769
1	81152587	22520.886255820607	1415.3230616302
1	83536527	22580.911869193936	1458.5900497512
1	85919572	22640.930797092615	1355.8330019881
1	88301197	22700.951750469581	1381.1500994036
1	90684075	22760.968334206634	1446.1222664016
1	93068437	22820.989383137056	1351.5168986083
1	95451484	22881.008677961601	1373.6739562624
1	97834650	22941.031689154841	1444.6640159046
1	100216489	23001.051730198981	1463.2186878728
1	102600091	23061.076755290683	1400.6182902584
1	104982379	23121.099888219225	1436.6908548708
1	107365939	23181.124533641972	1456.3369781312
1	109748376	23241.146398463349	1388.6838966203
1	112131196	23301.168970381899	1423.9731610338
1	114514022	23361.193125215033	1479.7246520875
1	116897732	23421.218012664921	1428.3499005964
1	119285396	23481.246083780312	1394.9870775348
1	121668033	23541.270771474944	1410.2286282306
1	124050961	23601.294114572415	1413.5467196819
2	2	20000	0
2	660011	20060	46.666666666667
2	1419543	20120.023835355948	33.391304347826
2	2260038	20180.047696571478	33.480769230769
2	3174622	20240.071023251187	16
2	4199789	20300.091753749791	14.814814814815
2	5301895	20360.109102043267	10.711538461538
2	6508454	20420.134489738516	51.340425531915
2	7791964	20480.153097521781	7.156862745098
2	9154818	20540.171298182689	87.510204081633
2	10585368	20600.188920135394	1.3333333333333
2	12117149	20660.205453689717	0
2	13710214	20720.226535191031	0
2	15346128	20780.24873952028	0
2	17046036	20840.269874498136	10.24
2	18816045	20900.289783742863	0
2	20658162	20960.307747852944	0
2	22618698	21020.329364176777	0
2	24661445	21080.351006619074	0
2	26774199	21140.370283464393	0
2	28980393	21200.392298745176	0
2	31260189	21260.420249927914	0
2	33570425	21320.438982273369	0
2	35904947	21380.459784548832	0
2	38271585	21440.478612385277	0
2	40649032	21500.494579712342	0
2	43029388	21560.513847651713	0
2	45410837	21620.534282078506	0
2	47792138	21680.558105604583	0
2	50174674	21740.580196567873	0
2	52557454	21800.601211682431	0
2	54939713	21860.626250561767	0
2	57323501	21920.652345907236	0
2	59705806	21980.678367698414	0
2	62089704	22040.702739179346	0
2	64471681	22100.729538775284	0
2	66855863	22160.748900733543	0
2	69237787	22220.769554107647	0
2	71621350	22280.793024526503	0
2	74006492	22340.813273620936	0
2	76386627	22400.836917305039	0
2	78769674	22460.860234808445	0
2	81152587	22520.886255820607	0
2	83536527	22580.911869193936	0
2	85919572	22640.930797092615	0
2	88301197	22700.951750469581	0
2	90684075	22760.968334206634	0
2	93068437	22820.989383137056	0
2	95451484	22881.008677961601	0
2	97834650	22941.031689154841	0
2	100216489	23001.051730198981	0
2	102600091	23061.076755290683	0
2	104982379	23121.099888219225	0
2	107365939	23181.124533641972	0
2	109748376	23241.146398463349	0
2	112131196	23301.168970381899	0
2	114514022	23361.193125215033	0
2	116897732	23421.218012664921	0
2	119285396	23481.246083780312	0
2	121668033	23541.270771474944	0
2	124050961	23601.294114572415	0
3	2	20000	400
3	660011	20060	1425
3	1419543	20120.023835355948	1543
3	2260038	20180.047696571478	1605
3	3174622	20240.071023251187	1646
3	4199789	20300.091753749791	1692
3	5301895	20360.109102043267	1744
3	6508454	20420.134489738516	1795
3	7791964	20480.153097521781	1834
3	9154818	20540.171298182689	1850
3	10585368	20600.188920135394	1869
3	12117149	20660.205453689717	1876
3	13710214	20720.226535191031	1879
3	15346128	20780.24873952028	1883
3	17046036	20840.269874498136	1883
3	18816045	20900.289783742863	1884
3	20658162	20960.307747852944	1884
3	22618698	21020.329364176777	1884
3	24661445	21080.351006619074	1884
3	26774199	21140.370283464393	1884
3	28980393	21200.392298745176	1884
3	31260189	21260.420249927914	1884
3	33570425	21320.438982273369	1884
3	35904947	21380.459784548832	1884
3	38271585	21440.478612385277	1884
3	40649032	21500.494579712342	1884
3	43029388	21560.513847651713	1884
3	45410837	21620.534282078506	1884
3	47792138	21680.558105604583	1884
3	50174674	21740.580196567873	1884
3	52557454	21800.601211682431	1884
3	54939713	21860.626250561767	1884
3	57323501	21920.652345907236	1884
3	59705806	21980.678367698414	1884
3	62089704	22040.702739179346	1884
3	64471681	22100.729538775284	1884
3	66855863	22160.748900733543	1884
3	69237787	22220.769554107647	1884
3	71621350	22280.793024526503	1884
3	74006492	22340.813273620936	1884
3	76386627	22400.836917305039	1884
3	78769674	22460.860234808445	1884
3	81152587	22520.886255820607	1884
3	83536527	22580.911869193936	1884
3	85919572	22640.930797092615	1884
3	88301197	22700.951750469581	1884
3	90684075	22760.968334206634	1884
3	93068437	22820.989383137056	1884
3	95451484	22881.008677961601	1884
3	97834650	22941.031689154841	1884
3	100216489	23001.051730198981	1884
3	102600091	23061.076755290683	1884
3	104982379	23121.099888219225	1884
3	107365939	23181.124533641972	1884
3	109748376	23241.146398463349	1884
3	112131196	23301.168970381899	1884
3	114514022	23361.193125215033	1884
3	116897732	23421.218012664921	1884
3	119285396	23481.246083780312	1884
3	121668033	23541.270771474944	1884
3	124050961	23601.294114572415	1884
4	2	20000	400
4	660011	20060	954
4	1419543	20120.023835355948	974
4	2260038	20180.047696571478	977
4	3174622	20240.071023251187	969
4	4199789	20300.091753749791	966
4	5301895	20360.109102043267	984
4	6508454	20420.134489738516	1019
4	7791964	20480.153097521781	1025
4	9154818	20540.171298182689	1024
4	10585368	20600.188920135394	1030
4	12117149	20660.205453689717	997
4	13710214	20720.226535191031	984
4	15346128	20780.24873952028	980
4	17046036	20840.269874498136	962
4	18816045	20900.289783742863	964
4	20658162	20960.307747852944	966
4	22618698	21020.329364176777	955
4	24661445	21080.351006619074	958
4	26774199	21140.370283464393	961
4	28980393	21200.392298745176	981
4	31260189	21260.420249927914	994
4	33570425	21320.438982273369	991
4	35904947	21380.459784548832	998
4	38271585	21440.478612385277	1003
4	40649032	21500.494579712342	1004
4	43029388	21560.513847651713	1005
4	45410837	21620.534282078506	1006
4	47792138	21680.558105604583	1006
4	50174674	21740.580196567873	1006
4	52557454	21800.601211682431	1006
4	54939713	21860.626250561767	1006
4	57323501	21920.652345907236	1006
4	59705806	21980.678367698414	1006
4	62089704	22040.702739179346	1006
4	64471681	22100.729538775284	1006
4	66855863	22160.748900733543	1006
4	69237787	22220.769554107647	1006
4	71621350	22280.793024526503	1006
4	74006492	22340.813273620936	1006
4	76386627	22400.836917305039	1006
4	78769674	22460.860234808445	1006
4	81152587	22520.886255820607	1006
4	83536527	22580.911869193936	1005
4	85919572	22640.930797092615	1006
4	88301197	22700.951750469581	1006
4	90684075	22760.968334206634	1006
4	93068437	22820.989383137056	1006
4	95451484	22881.008677961601	1006
4	97834650	22941.031689154841	1006
4	100216489	23001.051730198981	1006
4	102600091	23061.076755290683	1006
4	104982379	23121.099888219225	1006
4	107365939	23181.124533641972	1006
4	109748376	23241.146398463349	1006
4	112131196	23301.168970381899	1006
4	114514022	23361.193125215033	1006
4	116897732	23421.218012664921	1006
4	119285396	23481.246083780312	1006
4	121668033	23541.270771474944	1006
4	124050961	23601.294114572415	1006
5	2	20000	0
5	660011	20060	48
5	1419543	20120.023835355948	46
5	2260038	20180.047696571478	52
5	3174622	20240.071023251187	54
5	4199789	20300.091753749791	54
5	5301895	20360.109102043267	52
5	6508454	20420.134489738516	47
5	7791964	20480.153097521781	51
5	9154818	20540.171298182689	49
5	10585368	20600.188920135394	48
5	12117149	20660.205453689717	49
5	13710214	20720.226535191031	47
5	15346128	20780.24873952028	49
5	17046036	20840.269874498136	50
5	18816045	20900.289783742863	50
5	20658162	20960.307747852944	50
5	22618698	21020.329364176777	48
5	24661445	21080.351006619074	53
5	26774199	21140.370283464393	54
5	28980393	21200.392298745176	54
5	31260189	21260.420249927914	53
5	33570425	21320.438982273369	53
5	35904947	21380.459784548832	54
5	38271585	21440.478612385277	55
5	40649032	21500.494579712342	55
5	43029388	21560.513847651713	55
5	45410837	21620.534282078506	55
5	47792138	21680.558105604583	55
5	50174674	21740.580196567873	55
5	52557454	21800.601211682431	55
5	54939713	21860.626250561767	55
5	57323501	21920.652345907236	55
5	59705806	21980.678367698414	55
5	62089704	22040.702739179346	55
5	64471681	22100.729538775284	55
5	66855863	22160.748900733543	55
5	69237787	22220.769554107647	55
5	71621350	22280.793024526503	55
5	74006492	22340.813273620936	55
5	76386627	22400.836917305039	55
5	78769674	22460.860234808445	55
5	81152587	22520.886255820607	55
5	83536527	22580.911869193936	55
5	85919572	22640.930797092615	55
5	88301197	22700.951750469581	55
5	90684075	22760.968334206634	55
5	93068437	22820.989383137056	55
5	95451484	22881.008677961601	55
5	97834650	22941.031689154841	55
5	100216489	23001.051730198981	55
5	102600091	23061.076755290683	55
5	104982379	23121.099888219225	55
5	107365939	23181.124533641972	55
5	109748376	23241.146398463349	55
5	112131196	23301.168970381899	55
5	114514022	23361.193125215033	55
5	116897732	23421.218012664921	55
5	119285396	23481.246083780312	55
5	121668033	23541.270771474944	55
5	124050961	23601.294114572415	55
6	2	20000	400
6	660011	20060	1002
6	1419543	20120.023835355948	1020
6	2260038	20180.047696571478	1029
6	3174622	20240.071023251187	1023
6	4199789	20300.091753749791	1020
6	5301895	20360.109102043267	1036
6	6508454	20420.134489738516	1066
6	7791964	20480.153097521781	1076
6	9154818	20540.171298182689	1073
6	10585368	20600.188920135394	1078
6	12117149	20660.205453689717	1046
6	13710214	20720.226535191031	1031
6	15346128	20780.24873952028	1029
6	17046036	20840.269874498136	1012
6	18816045	20900.289783742863	1014
6	20658162	20960.307747852944	1016
6	22618698	21020.329364176777	1003
6	24661445	21080.351006619074	1011
6	26774199	21140.370283464393	1015
6	28980393	21200.392298745176	1035
6	31260189	21260.420249927914	1047
6	33570425	21320.438982273369	1044
6	35904947	21380.459784548832	1052
6	38271585	21440.478612385277	1058
6	40649032	21500.494579712342	1059
6	43029388	21560.513847651713	1060
6	45410837	21620.534282078506	1061
6	47792138	21680.558105604583	1061
6	50174674	21740.580196567873	1061
6	52557454	21800.601211682431	1061
6	54939713	21860.626250561767	1061
6	57323501	21920.652345907236	1061
6	59705806	21980.678367698414	1061
6	62089704	22040.702739179346	1061
6	64471681	22100.729538775284	1061
6	66855863	22160.748900733543	1061
6	69237787	22220.769554107647	1061
6	71621350	22280.793024526503	1061
6	74006492	22340.813273620936	1061
6	76386627	22400.836917305039	1061
6	78769674	22460.860234808445	1061
6	81152587	22520.886255820607	1061
6	83536527	22580.911869193936	1060
6	85919572	22640.930797092615	1061
6	88301197	22700.951750469581	1061
6	90684075	22760.968334206634	1061
6	93068437	22820.989383137056	1061
6	95451484	22881.008677961601	1061
6	97834650	22941.031689154841	1061
6	100216489	23001.051730198981	1061
6	102600091	23061.076755290683	1061
6	104982379	23121.099888219225	1061
6	107365939	23181.124533641972	1061
6	109748376	23241.146398463349	1061
6	112131196	23301.168970381899	1061
6	114514022	23361.193125215033	1061
6	116897732	23421.218012664921	1061
6	119285396	23481.246083780312	1061
6	121668033	23541.270771474944	1061
6	124050961	23601.294114572415	1061
7	2	20000	5052
7	660011	20060	24
7	1419543	20120.023835355948	73
7	2260038	20180.047696571478	301
7	3174622	20240.071023251187	3287
7	4199789	20300.091753749791	4754
7	5301895	20360.109102043267	6208
7	6508454	20420.134489738516	10997
7	7791964	20480.153097521781	29716
7	9154818	20540.171298182689	30649
7	10585368	20600.188920135394	31406
7	12117149	20660.205453689717	33867
7	13710214	20720.226535191031	37008
7	15346128	20780.24873952028	36723
7	17046036	20840.269874498136	37025
7	18816045	20900.289783742863	36024
7	20658162	20960.307747852944	33077
7	22618698	21020.329364176777	30833
7	24661445	21080.351006619074	29935
7	26774199	21140.370283464393	29249
7	28980393	21200.392298745176	27431
7	31260189	21260.420249927914	26291
7	33570425	21320.438982273369	25247
7	35904947	21380.459784548832	25456
7	38271585	21440.478612385277	25001
7	40649032	21500.494579712342	24477
7	43029388	21560.513847651713	24776
7	45410837	21620.534282078506	25308
7	47792138	21680.558105604583	24956
7	50174674	21740.580196567873	25218
7	52557454	21800.601211682431	25425
7	54939713	21860.626250561767	25162
7	57323501	21920.652345907236	25587
7	59705806	21980.678367698414	24167
7	62089704	22040.702739179346	25487
7	64471681	22100.729538775284	24221
7	66855863	22160.748900733543	25915
7	69237787	22220.769554107647	25468
7	71621350	22280.793024526503	24346
7	74006492	22340.813273620936	25473
7	76386627	22400.836917305039	26054
7	78769674	22460.860234808445	25042
7	81152587	22520.886255820607	25266
7	83536527	22580.911869193936	26156
7	85919572	22640.930797092615	24816
7	88301197	22700.951750469581	24306
7	90684075	22760.968334206634	25272
7	93068437	22820.989383137056	24145
7	95451484	22881.008677961601	24428
7	97834650	22941.031689154841	26289
7	100216489	23001.051730198981	25125
7	102600091	23061.076755290683	26034
7	104982379	23121.099888219225	25341
7	107365939	23181.124533641972	26115
7	109748376	23241.146398463349	24635
7	112131196	23301.168970381899	24710
7	114514022	23361.193125215033	25228
7	116897732	23421.218012664921	25181
7	119285396	23481.246083780312	24324
7	121668033	23541.270771474944	24921
7	124050961	23601.294114572415	25012
8	2	20000	5052
8	660011	20060	49461
8	1419543	20120.023835355948	49346
8	2260038	20180.047696571478	49306
8	3174622	20240.071023251187	48965
8	4199789	20300.091753749791	48516
8	5301895	20360.109102043267	48142
8	6508454	20420.134489738516	47251
8	7791964	20480.153097521781	46488
8	9154818	20540.171298182689	46191
8	10585368	20600.188920135394	45589
8	12117149	20660.205453689717	45270
8	13710214	20720.226535191031	44866
8	15346128	20780.24873952028	44781
8	17046036	20840.269874498136	44599
8	18816045	20900.289783742863	44117
8	20658162	20960.307747852944	43197
8	22618698	21020.329364176777	42576
8	24661445	21080.351006619074	42251
8	26774199	21140.370283464393	41446
8	28980393	21200.392298745176	40666
8	31260189	21260.420249927914	40562
8	33570425	21320.438982273369	40225
8	35904947	21380.459784548832	40137
8	38271585	21440.478612385277	39867
8	40649032	21500.494579712342	39954
8	43029388	21560.513847651713	39947
8	45410837	21620.534282078506	39991
8	47792138	21680.558105604583	39964
8	50174674	21740.580196567873	39983
8	52557454	21800.601211682431	40024
8	54939713	21860.626250561767	39809
8	57323501	21920.652345907236	40057
8	59705806	21980.678367698414	39895
8	62089704	22040.702739179346	39912
8	64471681	22100.729538775284	39630
8	66855863	22160.748900733543	39925
8	69237787	22220.769554107647	39912
8	71621350	22280.793024526503	40021
8	74006492	22340.813273620936	39712
8	76386627	22400.836917305039	39816
8	78769674	22460.860234808445	39971
8	81152587	22520.886255820607	39867
8	83536527	22580.911869193936	40018
8	85919572	22640.930797092615	39808
8	88301197	22700.951750469581	39937
8	90684075	22760.968334206634	39900
8	93068437	22820.989383137056	40016
8	95451484	22881.008677961601	40026
8	97834650	22941.031689154841	39917
8	100216489	23001.051730198981	39898
8	102600091	23061.076755290683	39836
8	104982379	23121.099888219225	39853
8	107365939	23181.124533641972	40020
8	109748376	23241.146398463349	39958
8	112131196	23301.168970381899	39923
8	114514022	23361.193125215033	40162
8	116897732	23421.218012664921	39818
8	119285396	23481.246083780312	39948
8	121668033	23541.270771474944	40034
8	124050961	23601.294114572415	39880
9	2	20000	0
9	660011	20060	0
9	1419543	20120.023835355948	1
9	2260038	20180.047696571478	2
9	3174622	20240.071023251187	0
9	4199789	20300.091753749791	0
9	5301895	20360.109102043267	4
9	6508454	20420.134489738516	30
9	7791964	20480.153097521781	32
9	9154818	20540.171298182689	32
9	10585368	20600.188920135394	3
9	12117149	20660.205453689717	44
9	13710214	20720.226535191031	13
9	15346128	20780.24873952028	3
9	17046036	20840.269874498136	7
9	18816045	20900.289783742863	0
9	20658162	20960.307747852944	46
9	22618698	21020.329364176777	5
9	24661445	21080.351006619074	8
9	26774199	21140.370283464393	27
9	28980393	21200.392298745176	0
9	31260189	21260.420249927914	0
9	33570425	21320.438982273369	0
9	35904947	21380.459784548832	17
9	38271585	21440.478612385277	1
9	40649032	21500.494579712342	1
9	43029388	21560.513847651713	0
9	45410837	21620.534282078506	0
9	47792138	21680.558105604583	6
9	50174674	21740.580196567873	1
9	52557454	21800.601211682431	0
9	54939713	21860.626250561767	0
9	57323501	21920.652345907236	0
9	59705806	21980.678367698414	3
9	62089704	22040.702739179346	0
9	64471681	22100.729538775284	0
9	66855863	22160.748900733543	3
9	69237787	22220.769554107647	0
9	71621350	22280.793024526503	3
9	74006492	22340.813273620936	0
9	76386627	22400.836917305039	1
9	78769674	22460.860234808445	0
9	81152587	22520.886255820607	0
9	83536527	22580.911869193936	3
9	85919572	22640.930797092615	13
9	88301197	22700.951750469581	0
9	90684075	22760.968334206634	4
9	93068437	22820.989383137056	2
9	95451484	22881.008677961601	1
9	97834650	22941.031689154841	5
9	100216489	23001.051730198981	0
9	102600091	23061.076755290683	0
9	104982379	23121.099888219225	3
9	107365939	23181.124533641972	0
9	109748376	23241.146398463349	5
9	112131196	23301.168970381899	0
9	114514022	23361.193125215033	6
9	116897732	23421.218012664921	6
9	119285396	23481.246083780312	1
9	121668033	23541.270771474944	0
9	124050961	23601.294114572415	6
10	2	20000	0
10	660011	20060	47466
10	1419543	20120.023835355948	47442
10	2260038	20180.047696571478	47360
10	3174622	20240.071023251187	44310
10	4199789	20300.091753749791	42929
10	5301895	20360.109102043267	41311
10	6508454	20420.134489738516	36580
10	7791964	20480.153097521781	17768
10	9154818	20540.171298182689	16839
10	10585368	20600.188920135394	16114
10	12117149	20660.205453689717	13649
10	13710214	20720.226535191031	10571
10	15346128	20780.24873952028	10841
10	17046036	20840.269874498136	10558
10	18816045	20900.289783742863	11403
10	20658162	20960.307747852944	14129
10	22618698	21020.329364176777	16506
10	24661445	21080.351006619074	17228
10	26774199	21140.370283464393	17780
10	28980393	21200.392298745176	19667
10	31260189	21260.420249927914	20806
10	33570425	21320.438982273369	21852
10	35904947	21380.459784548832	21671
10	38271585	21440.478612385277	21965
10	40649032	21500.494579712342	22635
10	43029388	21560.513847651713	22255
10	45410837	21620.534282078506	21776
10	47792138	21680.558105604583	22103
10	50174674	21740.580196567873	21884
10	52557454	21800.601211682431	21648
10	54939713	21860.626250561767	21867
10	57323501	21920.652345907236	21442
10	59705806	21980.678367698414	22912
10	62089704	22040.702739179346	21628
10	64471681	22100.729538775284	22814
10	66855863	22160.748900733543	21085
10	69237787	22220.769554107647	21527
10	71621350	22280.793024526503	22709
10	74006492	22340.813273620936	21488
10	76386627	22400.836917305039	21031
10	78769674	22460.860234808445	22009
10	81152587	22520.886255820607	21832
10	83536527	22580.911869193936	20911
10	85919572	22640.930797092615	22279
10	88301197	22700.951750469581	22664
10	90684075	22760.968334206634	21766
10	93068437	22820.989383137056	22844
10	95451484	22881.008677961601	22660
10	97834650	22941.031689154841	20869
10	100216489	23001.051730198981	21859
10	102600091	23061.076755290683	21017
10	104982379	23121.099888219225	21753
10	107365939	23181.124533641972	21047
10	109748376	23241.146398463349	22518
10	112131196	23301.168970381899	22351
10	114514022	23361.193125215033	21866
10	116897732	23421.218012664921	21930
10	119285396	23481.246083780312	22698
10	121668033	23541.270771474944	22106
10	124050961	23601.294114572415	21963
11	2	20000	5052
11	660011	20060	107865
11	1419543	20120.023835355948	130882
11	2260038	20180.047696571478	146726
11	3174622	20240.071023251187	161344
11	4199789	20300.091753749791	182952
11	5301895	20360.109102043267	198139
11	6508454	20420.134489738516	218455
11	7791964	20480.153097521781	233752
11	9154818	20540.171298182689	249443
11	10585368	20600.188920135394	263449
11	12117149	20660.205453689717	284252
11	13710214	20720.226535191031	296647
11	15346128	20780.24873952028	305305
11	17046036	20840.269874498136	318673
11	18816045	20900.289783742863	332973
11	20658162	20960.307747852944	347564
11	22618698	21020.329364176777	371641
11	24661445	21080.351006619074	388462
11	26774199	21140.370283464393	402290
11	28980393	21200.392298745176	421459
11	31260189	21260.420249927914	436307
11	33570425	21320.438982273369	442342
11	35904947	21380.459784548832	447182
11	38271585	21440.478612385277	453781
11	40649032	21500.494579712342	455850
11	43029388	21560.513847651713	456471
11	45410837	21620.534282078506	456651
11	47792138	21680.558105604583	456721
11	50174674	21740.580196567873	457104
11	52557454	21800.601211682431	457104
11	54939713	21860.626250561767	457104
11	57323501	21920.652345907236	457104
11	59705806	21980.678367698414	457104
11	62089704	22040.702739179346	457104
11	64471681	22100.729538775284	457104
11	66855863	22160.748900733543	457104
11	69237787	22220.769554107647	457104
11	71621350	22280.793024526503	457104
11	74006492	22340.813273620936	457104
11	76386627	22400.836917305039	457104
11	78769674	22460.860234808445	457104
11	81152587	22520.886255820607	457104
11	83536527	22580.911869193936	457104
11	85919572	22640.930797092615	457104
11	88301197	22700.951750469581	457104
11	90684075	22760.968334206634	457104
11	93068437	22820.989383137056	457104
11	95451484	22881.008677961601	457051
11	97834650	22941.031689154841	457104
11	100216489	23001.051730198981	457104
11	102600091	23061.076755290683	457104
11	104982379	23121.099888219225	457104
11	107365939	23181.124533641972	457104
11	109748376	23241.146398463349	457104
11	112131196	23301.168970381899	457104
11	114514022	23361.193125215033	457104
11	116897732	23421.218012664921	457104
11	119285396	23481.246083780312	457104
11	121668033	23541.270771474944	457104
11	124050961	23601.294114572415	457104
12	2	20000	0
12	660011	20060	2510
12	1419543	20120.023835355948	2486
12	2260038	20180.047696571478	2341
12	3174622	20240.071023251187	2403
12	4199789	20300.091753749791	2317
12	5301895	20360.109102043267	2485
12	6508454	20420.134489738516	2453
12	7791964	20480.153097521781	2548
12	9154818	20540.171298182689	2544
12	10585368	20600.188920135394	2483
12	12117149	20660.205453689717	2528
12	13710214	20720.226535191031	2434
12	15346128	20780.24873952028	2439
12	17046036	20840.269874498136	2424
12	18816045	20900.289783742863	2573
12	20658162	20960.307747852944	2840
12	22618698	21020.329364176777	2666
12	24661445	21080.351006619074	2845
12	26774199	21140.370283464393	2998
12	28980393	21200.392298745176	2902
12	31260189	21260.420249927914	2903
12	33570425	21320.438982273369	2901
12	35904947	21380.459784548832	2890
12	38271585	21440.478612385277	3035
12	40649032	21500.494579712342	2889
12	43029388	21560.513847651713	2969
12	45410837	21620.534282078506	2916
12	47792138	21680.558105604583	2947
12	50174674	21740.580196567873	2899
12	52557454	21800.601211682431	2927
12	54939713	21860.626250561767	2971
12	57323501	21920.652345907236	2971
12	59705806	21980.678367698414	2924
12	62089704	22040.702739179346	2885
12	64471681	22100.729538775284	2965
12	66855863	22160.748900733543	3003
12	69237787	22220.769554107647	3005
12	71621350	22280.793024526503	2948
12	74006492	22340.813273620936	3039
12	76386627	22400.836917305039	2916
12	78769674	22460.860234808445	2949
12	81152587	22520.886255820607	2902
12	83536527	22580.911869193936	2936
12	85919572	22640.930797092615	2918
12	88301197	22700.951750469581	3030
12	90684075	22760.968334206634	2966
12	93068437	22820.989383137056	3013
12	95451484	22881.008677961601	2913
12	97834650	22941.031689154841	2847
12	100216489	23001.051730198981	3016
12	102600091	23061.076755290683	2949
12	104982379	23121.099888219225	2909
12	107365939	23181.124533641972	2838
12	109748376	23241.146398463349	2852
12	112131196	23301.168970381899	2939
12	114514022	23361.193125215033	2912
12	116897732	23421.218012664921	2895
12	119285396	23481.246083780312	2979
12	121668033	23541.270771474944	2973
12	124050961	23601.294114572415	3031

