version 2
run MoST-MaliciousCoordinated-0-20201102-16:53:00-6205
attr configname MoST-MaliciousCoordinated
attr datetime 20201102-16:53:00
attr experiment MoST-MaliciousCoordinated
attr inifile omnetpp.ini
attr iterationvars $0=false
attr iterationvarsf false-
attr measurement $0=false
attr network CoordinatedAttackScenario
attr processid 6205
attr repetition 0
attr replication #0
attr resultdir results
attr runnumber 0
attr seedset 0
param *.playgroundSizeX 10500m
param *.playgroundSizeY 7000m
param *.playgroundSizeZ 50m
param *.manager.launchConfig "xmldoc(\"most.launchd.xml\")"
param *.manager.connectAt 14400s
param *.manager.firstStepAt 20000s
param *.manager.updateInterval 250ms
param *.manager.moduleType "\"passenger1=org.car2x.veins.subprojects.simulator.nodes.Vehicle passenger2a=org.car2x.veins.subprojects.simulator.nodes.Vehicle passenger2b=org.car2x.veins.subprojects.simulator.nodes.Vehicle passenger3=org.car2x.veins.subprojects.simulator.nodes.Vehicle passenger4=org.car2x.veins.subprojects.simulator.nodes.Vehicle *=org.car2x.veins.subprojects.simulator.nodes.NonPartakingVehicle\""
param *.manager.moduleName "\"passenger1=node passenger2a=node passenger2b=node passenger3=node passenger4=node *=other\""
param *.manager.moduleDisplayString "\"passenger1='i=veins/node/car;is=vs' passenger2a='i=veins/node/car;is=vs' passenger2b='i=veins/node/car;is=vs' passenger3='i=veins/node/car;is=vs' passenger4='i=veins/node/car;is=vs' *='i=veins/node/bicycle;is=vs'\""
param *.manager.secondModuleType "\"passenger1=org.car2x.veins.subprojects.simulator.nodes.Vehicle passenger2a=org.car2x.veins.subprojects.simulator.nodes.Vehicle passenger2b=org.car2x.veins.subprojects.simulator.nodes.Vehicle passenger3=org.car2x.veins.subprojects.simulator.nodes.Vehicle passenger4=org.car2x.veins.subprojects.simulator.nodes.Vehicle *=org.car2x.veins.subprojects.simulator.nodes.NonPartakingVehicle\""
param *.rsuPlacer.rows 20
param *.rsuPlacer.cols 20
param *.rsuPlacer.rsuDisplayString "\"i=veins/node/cone;is=vs\""
param *.node2[*].app.blockchain.validatorModule "\"org.car2x.veins.subprojects.simulator.modules.validation.PlausibilityValidation\""
param *.node2[*].app.generatorModule "\"org.car2x.veins.subprojects.simulator.modules.transactions.OffsetTransactionGenerator\""
param *.node2[*].app.transactionGenerator.answerBack true
param *.node2[*].app.transactionGenerator.changeOffset false
param *.node2[*].app.transactionGenerator.transactionsPerTurn 4
param *.**.app.blockchain.statusUpdateModule "\"org.car2x.veins.subprojects.simulator.modules.status.FixedReward\""
param *.**.app.transactionGenerator.maxOffset 6000m
param *.**.app.transactionGenerator.minOffset 4500m
param *.manager.vehicleCap 1500
param *.manager.ratio 0.05
param *.**.app.transactionGenerator.range 15m
param *.**.wave.range 15m
param *.logger.logFile "\"results/MoST-MaliciousCoordinated-false--0.blockchain.log\""
param *.addressTable.logFile "\"results/MoST-MaliciousCoordinated-false--0.addresses.log\""
param *.maliciousNodes 0
param *.nodePlacer.x 500
param *.nodePlacer.y 500
param *.**.app.blockchain.statusUpdater.maxReward 4096
param *.**.app.blockchain.statusUpdater.reward 256
param *.**.app.blockchain.statusUpdater.penalty 512
param *.**.app.blockchain.statusUpdater.startingReward 64
param *.**.app.blockchain.blockValidator.decayRate 0.3
param *.**.app.blockchain.blockValidator.varianceWeight 0.67
param *.**.app.blockchain.blockValidator.maxConflicts 2
param *.**.app.blockchain.blockchain.storedChainLength 10
param *.**.app.blockchain.blockValidator.depth 3
param *.**.app.blockchain.blockValidator.threshold 0.1
param *.**.app.transactionPeriod 5s
param *.manager.secondModuleType "\"org.car2x.veins.subprojects.simulator.nodes.Vehicle\""
param *.manager.ratio 0.1
param *.rsuPlacer.rows 16
param *.rsuPlacer.cols 16
param *.rsuPlacer.rsuDisplayString "\"i=veins/node/cone;is=vs\""
param *.**.app.blockchain.statusUpdater.rsuStartingReward 2048
param *.**.app.blockchain.statusUpdater.startingReward 1024
param *.**.app.blockchain.statusUpdater.reward 512
param *.**.app.blockchain.statusUpdater.penalty 2048
param *.**.app.blockchain.statusUpdater.maxReward 4096
param *.**.app.blockchain.consensusModule "\"org.car2x.veins.subprojects.simulator.modules.consensus.BaseVotingModel\""
param *.**.app.blockchain.filterModule "\"org.car2x.veins.subprojects.simulator.modules.blocks.SimpleFilter\""
param *.**.app.blockchain.harvesterModule "\"org.car2x.veins.subprojects.simulator.modules.harvesting.DeterministicHarvester\""
param *.**.app.blockchain.statusUpdateModule "\"org.car2x.veins.subprojects.simulator.modules.status.FixedReward\""
param *.**.app.blockchain.consensusModel.harvesters 3
param *.**.app.blockchain.consensusModel.faultTolerance 6
param *.**.app.blockchain.consensusModel.timeout 3s
param *.**.app.transactionPeriod 1s
param *.**.app.transactionGenerator.range 40m
param *.**.app.applicationModule "\"org.car2x.veins.subprojects.simulator.modules.application.TestApplication\""
param *.node[*].app.blockchain.validatorModule "\"org.car2x.veins.subprojects.simulator.modules.validation.PlausibilityValidation\""
param *.node[*].app.generatorModule "\"org.car2x.veins.subprojects.simulator.modules.transactions.ValidTransactionGenerator\""
param *.node2[*].app.blockchain.validatorModule "\"org.car2x.veins.subprojects.simulator.modules.validation.SelfishValidator\""
param *.node2[*].app.generatorModule "\"org.car2x.veins.subprojects.simulator.modules.transactions.MimicTransactionGenerator\""
param *.node[*].veinsmobility.x 0
param *.node[*].veinsmobility.y 0
param *.node[*].veinsmobility.z 0
param *.node[*].veinsmobility.setHostSpeed false
param *.node[*].veinsmobility.accidentCount 0
param *.node[*].veinsmobility.accidentStart 0s
param *.node[*].veinsmobility.accidentDuration 0s
param *.node2[*].veinsmobility.x 0
param *.node2[*].veinsmobility.y 0
param *.node2[*].veinsmobility.z 0
param *.node2[*].veinsmobility.setHostSpeed false
param *.node2[*].veinsmobility.accidentCount 0
param *.node2[*].veinsmobility.accidentStart 0s
param *.node2[*].veinsmobility.accidentDuration 0s
param *.RSU[*].app.blockchain.validatorModule "\"org.car2x.veins.subprojects.simulator.modules.validation.PlausibilityValidation\""
param *.RSU[*].app.generatorModule "\"org.car2x.veins.subprojects.simulator.modules.transactions.ValidTransactionGenerator\""
param *.RSU[*].app.blockchain.blockchain.downloadAtStart false
param *.playgroundSizeX 2500m
param *.playgroundSizeY 2500m
param *.playgroundSizeZ 50m
param *.annotations.draw true
param *.obstacles.obstacles "xmldoc(\"config.xml\", \"//AnalogueModel[@type='SimpleObstacleShadowing']/obstacles\")"
param *.manager.updateInterval 1s
param *.manager.host "\"localhost\""
param *.manager.port 9999
param *.manager.autoShutdown true
param *.manager.launchConfig "xmldoc(\"erlangen.launchd.xml\")"
param *.manager.moduleType "\"org.car2x.veins.subprojects.simulator.nodes.Vehicle\""
param *.manager.secondModuleType "\"org.car2x.veins.subprojects.simulator.nodes.Vehicle\""
param *.manager.ratio 0.0
param *.connectionManager.sendDirect true
param *.connectionManager.maxInterfDist 2600m
param *.connectionManager.drawMaxIntfDist false
param *.**.wave.range 40m
param *.**.wave.speed 6Gbps
param *.**.inet.speed 10Gbps
param *.**.app.blockchain.blocksize 50000
param *.**.app.blockchain.blocktime 60s
param *.**.app.blockchain.blockValidator.maxSpeed 130kmph
param *.logger.logFile "\"results/MoST-MaliciousCoordinated-0.blockchain.log\""
param *.addressTable.logFile "\"results/MoST-MaliciousCoordinated-0.addresses.log\""
param *.RSU[*].app.blockchain.blockchain.downloadAtStart false
param *.**.app.blockchain.consensusModule "\"org.car2x.veins.subprojects.simulator.modules.consensus.TrustedEnvironment\""
param *.**.app.blockchain.filterModule "\"org.car2x.veins.subprojects.simulator.modules.blocks.SimpleFilter\""
param *.**.app.blockchain.harvesterModule "\"org.car2x.veins.subprojects.simulator.modules.harvesting.DeterministicHarvester\""
param *.**.app.blockchain.statusUpdateModule "\"org.car2x.veins.subprojects.simulator.modules.status.FixedReward\""
param *.**.app.blockchain.validatorModule "\"org.car2x.veins.subprojects.simulator.modules.validation.PlausibilityValidation\""
param *.**.app.generatorModule "\"org.car2x.veins.subprojects.simulator.modules.transactions.ValidTransactionGenerator\""
param *.**.app.applicationModule "\"org.car2x.veins.subprojects.simulator.modules.application.TestApplication\""
param *.**.app.transactionPeriod 1s
param *.**.app.transactionGenerator.range 40m
param *.**.app.blockchain.consensusModel.faultTolerance 6
param *.**.app.blockchain.consensusModel.timeout 2s
param *.node[*].veinsmobility.x 0
param *.node[*].veinsmobility.y 0
param *.node[*].veinsmobility.z 0
param *.node[*].veinsmobility.setHostSpeed false
param *.node[*].veinsmobility.accidentCount 0
param *.node[*].veinsmobility.accidentStart 0s
param *.node[*].veinsmobility.accidentDuration 0s

vector 0 CoordinatedAttackScenario.logger TotalReputationAverage ETV
vector 1 CoordinatedAttackScenario.logger ActiveType1ReputationAverage ETV
vector 2 CoordinatedAttackScenario.logger ActiveType2ReputationAverage ETV
vector 3 CoordinatedAttackScenario.logger NumberOfNodes ETV
vector 4 CoordinatedAttackScenario.logger NumberOfActiveType1Nodes ETV
vector 5 CoordinatedAttackScenario.logger NumberOfActiveType2Nodes ETV
vector 6 CoordinatedAttackScenario.logger NumberOfActiveNodes ETV
vector 7 CoordinatedAttackScenario.logger NumberOfAcceptableTransactions ETV
vector 8 CoordinatedAttackScenario.logger NumberOfPlausibleTransactions ETV
vector 9 CoordinatedAttackScenario.logger NumberOfAcceptedType2Transactions ETV
vector 10 CoordinatedAttackScenario.logger NumberOfUnacceptedType1Transactions ETV
vector 11 CoordinatedAttackScenario.logger TotalTransactions ETV
vector 12 CoordinatedAttackScenario.logger Type2Transactions ETV
0	2	20000	2048
0	658630	20060	49.667605633803
0	1419355	20120.017717656056	35.267532467532
0	2259514	20180.041009564805	54.591505309182
0	3174286	20240.059000203288	103.05179768434
0	4199344	20300.080747678685	179.33490844654
0	5301798	20360.107425472004	223.01262191624
0	6507180	20420.129734494131	488.35670562048
0	7792708	20480.146623049493	634.5198693522
0	9154367	20540.169668054288	891.64991896272
0	10580779	20600.189669499696	903.82150537634
0	12114203	20660.209825696958	987.27652733119
0	13707311	20720.232363785211	1082.5080128205
0	15342220	20780.254628060942	1134.2867803838
0	17041398	20840.281540986518	1191.3794571581
0	18812264	20900.305232010741	1216.8962765957
0	20653334	20960.328793864491	1189.8659574468
0	22614712	21020.354533350771	1116.5053191489
0	24658192	21080.373848902419	1064.7713981925
0	26769242	21140.394051658489	1054.1822529224
0	28976609	21200.411670900843	970.49415515409
0	31256379	21260.435883899724	896.90170031881
0	33566412	21320.457154412525	827.20244420829
0	35900958	21380.479662711078	795.93464399575
0	38267936	21440.504523552745	753.89532412327
0	40645015	21500.530519581602	702.73645058448
0	43025160	21560.5516492309	717.66206163656
0	45408649	21620.572950218082	712.94208289054
0	47787067	21680.594769556271	668.3862911796
0	50170046	21740.614590030457	712.17853347503
0	52550425	21800.638118435355	691.35812964931
0	54936424	21860.660423120223	658.2215727949
0	57318616	21920.682804834692	694.17268862912
0	59702091	21980.709342644353	685.21838469713
0	62084565	22040.727597178657	694.46705632306
0	64468341	22100.748449091398	703.08501594049
0	66851476	22160.772075984809	696.85706695005
0	69234280	22220.790000094043	692.9261424017
0	71616264	22280.812413896058	736.71147715197
0	73999155	22340.831813304825	760.22848034006
0	76382049	22400.849572621307	703.86131774708
0	78764802	22460.878243820782	715.43623804463
0	81147603	22520.903941235627	694.74973432519
0	83530506	22580.926601127701	683.53134962806
0	85913447	22640.949427510257	702.56216790648
0	88297122	22700.97061313269	720.53134962806
0	90680135	22760.988335200249	692.18331562168
0	93063384	22821.007866670313	695.78108395324
0	95446689	22881.029701326772	660.21094580234
0	97829637	22941.054631591714	723.67747077577
0	100211996	23001.072387159868	700.17056323061
0	102595732	23061.098020761842	720.57066950053
0	104977999	23121.122185233092	713.8692879915
0	107360726	23181.142306797264	682.91126461211
0	109743635	23241.16086709308	678.14240170032
0	112126671	23301.182445428192	700.2348565356
0	114509515	23361.210089922773	691.17534537726
0	116896985	23421.236369904306	698.50159404888
0	119280454	23481.262473964379	671.77736450584
0	121664180	23541.280648096243	698.86450584485
0	124047500	23601.296163922355	691.4298618491
1	2	20000	2048
1	658630	20060	71.814736842105
1	1419355	20120.017717656056	53.928644240571
1	2259514	20180.041009564805	87.938837920489
1	3174286	20240.059000203288	176.2893081761
1	4199344	20300.080747678685	307.86788617886
1	5301798	20360.107425472004	389.17452357071
1	6507180	20420.129734494131	864.24827586207
1	7792708	20480.146623049493	1125.1090733591
1	9154367	20540.169668054288	1589.138996139
1	10580779	20600.189669499696	1648.1450980392
1	12114203	20660.209825696958	1853.361167002
1	13707311	20720.232363785211	2086.9773429454
1	15342220	20780.254628060942	2191.3587628866
1	17041398	20840.281540986518	2348.7366211962
1	18812264	20900.305232010741	2368.281573499
1	20653334	20960.328793864491	2342.3539267016
1	22614712	21020.354533350771	2195.6380753138
1	24658192	21080.373848902419	2083.8491155047
1	26769242	21140.394051658489	2064.5203336809
1	28976609	21200.411670900843	1858.0569684639
1	31256379	21260.435883899724	1701.5816532258
1	33566412	21320.457154412525	1567.7693856999
1	35900958	21380.479662711078	1502.4563691073
1	38267936	21440.504523552745	1414.5872382851
1	40645015	21500.530519581602	1317.280876494
1	43025160	21560.5516492309	1343.92039801
1	45408649	21620.572950218082	1333.754473161
1	47787067	21680.594769556271	1250.4005964215
1	50170046	21740.614590030457	1332.3260437376
1	52550425	21800.638118435355	1293.3757455268
1	54936424	21860.660423120223	1231.3846918489
1	57318616	21920.682804834692	1298.6411530815
1	59702091	21980.709342644353	1281.8896620278
1	62084565	22040.727597178657	1299.1918489066
1	64468341	22100.748449091398	1315.3141153082
1	66851476	22160.772075984809	1303.6630218688
1	69234280	22220.790000094043	1296.3091451292
1	71616264	22280.812413896058	1378.2216699801
1	73999155	22340.831813304825	1422.2166998012
1	76382049	22400.849572621307	1316.7664015905
1	78764802	22460.878243820782	1338.4204771372
1	81147603	22520.903941235627	1299.7206759443
1	83530506	22580.926601127701	1278.7335984095
1	85913447	22640.949427510257	1314.3359840954
1	88297122	22700.97061313269	1347.9522862823
1	90680135	22760.988335200249	1294.9194831014
1	93063384	22821.007866670313	1301.6500994036
1	95446689	22881.029701326772	1235.106361829
1	97829637	22941.054631591714	1353.837972167
1	100211996	23001.072387159868	1309.8618290258
1	102595732	23061.098020761842	1348.0258449304
1	104977999	23121.122185233092	1335.4890656064
1	107360726	23181.142306797264	1277.5735586481
1	109743635	23241.16086709308	1268.6520874751
1	112126671	23301.182445428192	1309.9821073559
1	114509515	23361.210089922773	1293.0337972167
1	116896985	23421.236369904306	1306.7395626243
1	119280454	23481.262473964379	1257.9950248756
1	121664180	23541.280648096243	1307.4184890656
1	124047500	23601.296163922355	1293.5099403579
2	2	20000	0
2	658630	20060	44.307692307692
2	1419355	20120.017717656056	30.608695652174
2	2259514	20180.041009564805	24.106382978723
2	3174286	20240.059000203288	16.280701754386
2	4199344	20300.080747678685	12.679245283019
2	5301798	20360.107425472004	13.803921568627
2	6507180	20420.129734494131	7.3
2	7792708	20480.146623049493	0
2	9154367	20540.169668054288	80.313725490196
2	10580779	20600.189669499696	0
2	12114203	20660.209825696958	0.33333333333333
2	13707311	20720.232363785211	0
2	15342220	20780.254628060942	50.086956521739
2	17041398	20840.281540986518	5.2244897959184
2	18812264	20900.305232010741	0.094339622641509
2	20653334	20960.328793864491	0
2	22614712	21020.354533350771	0
2	24658192	21080.373848902419	4.9230769230769
2	26769242	21140.394051658489	75.851851851852
2	28976609	21200.411670900843	0
2	31256379	21260.435883899724	0
2	33566412	21320.457154412525	0
2	35900958	21380.479662711078	0
2	38267936	21440.504523552745	0
2	40645015	21500.530519581602	0
2	43025160	21560.5516492309	0
2	45408649	21620.572950218082	0
2	47787067	21680.594769556271	0
2	50170046	21740.614590030457	0
2	52550425	21800.638118435355	0
2	54936424	21860.660423120223	0
2	57318616	21920.682804834692	0
2	59702091	21980.709342644353	0
2	62084565	22040.727597178657	0
2	64468341	22100.748449091398	0
2	66851476	22160.772075984809	0
2	69234280	22220.790000094043	0
2	71616264	22280.812413896058	0
2	73999155	22340.831813304825	0
2	76382049	22400.849572621307	0
2	78764802	22460.878243820782	0
2	81147603	22520.903941235627	0
2	83530506	22580.926601127701	0
2	85913447	22640.949427510257	0
2	88297122	22700.97061313269	0
2	90680135	22760.988335200249	0
2	93063384	22821.007866670313	0
2	95446689	22881.029701326772	0
2	97829637	22941.054631591714	0
2	100211996	23001.072387159868	0
2	102595732	23061.098020761842	0
2	104977999	23121.122185233092	0
2	107360726	23181.142306797264	0
2	109743635	23241.16086709308	0
2	112126671	23301.182445428192	0
2	114509515	23361.210089922773	0
2	116896985	23421.236369904306	0
2	119280454	23481.262473964379	0
2	121664180	23541.280648096243	0
2	124047500	23601.296163922355	0
3	2	20000	400
3	658630	20060	1420
3	1419355	20120.017717656056	1540
3	2259514	20180.041009564805	1601
3	3174286	20240.059000203288	1641
3	4199344	20300.080747678685	1693
3	5301798	20360.107425472004	1743
3	6507180	20420.129734494131	1797
3	7792708	20480.146623049493	1837
3	9154367	20540.169668054288	1851
3	10580779	20600.189669499696	1860
3	12114203	20660.209825696958	1866
3	13707311	20720.232363785211	1872
3	15342220	20780.254628060942	1876
3	17041398	20840.281540986518	1879
3	18812264	20900.305232010741	1880
3	20653334	20960.328793864491	1880
3	22614712	21020.354533350771	1880
3	24658192	21080.373848902419	1881
3	26769242	21140.394051658489	1882
3	28976609	21200.411670900843	1882
3	31256379	21260.435883899724	1882
3	33566412	21320.457154412525	1882
3	35900958	21380.479662711078	1882
3	38267936	21440.504523552745	1882
3	40645015	21500.530519581602	1882
3	43025160	21560.5516492309	1882
3	45408649	21620.572950218082	1882
3	47787067	21680.594769556271	1882
3	50170046	21740.614590030457	1882
3	52550425	21800.638118435355	1882
3	54936424	21860.660423120223	1882
3	57318616	21920.682804834692	1882
3	59702091	21980.709342644353	1882
3	62084565	22040.727597178657	1882
3	64468341	22100.748449091398	1882
3	66851476	22160.772075984809	1882
3	69234280	22220.790000094043	1882
3	71616264	22280.812413896058	1882
3	73999155	22340.831813304825	1882
3	76382049	22400.849572621307	1882
3	78764802	22460.878243820782	1882
3	81147603	22520.903941235627	1882
3	83530506	22580.926601127701	1882
3	85913447	22640.949427510257	1882
3	88297122	22700.97061313269	1882
3	90680135	22760.988335200249	1882
3	93063384	22821.007866670313	1882
3	95446689	22881.029701326772	1882
3	97829637	22941.054631591714	1882
3	100211996	23001.072387159868	1882
3	102595732	23061.098020761842	1882
3	104977999	23121.122185233092	1882
3	107360726	23181.142306797264	1882
3	109743635	23241.16086709308	1882
3	112126671	23301.182445428192	1882
3	114509515	23361.210089922773	1882
3	116896985	23421.236369904306	1882
3	119280454	23481.262473964379	1882
3	121664180	23541.280648096243	1882
3	124047500	23601.296163922355	1882
4	2	20000	400
4	658630	20060	950
4	1419355	20120.017717656056	981
4	2259514	20180.041009564805	981
4	3174286	20240.059000203288	954
4	4199344	20300.080747678685	984
4	5301798	20360.107425472004	997
4	6507180	20420.129734494131	1015
4	7792708	20480.146623049493	1036
4	9154367	20540.169668054288	1036
4	10580779	20600.189669499696	1020
4	12114203	20660.209825696958	994
4	13707311	20720.232363785211	971
4	15342220	20780.254628060942	970
4	17041398	20840.281540986518	953
4	18812264	20900.305232010741	966
4	20653334	20960.328793864491	955
4	22614712	21020.354533350771	956
4	24658192	21080.373848902419	961
4	26769242	21140.394051658489	959
4	28976609	21200.411670900843	983
4	31256379	21260.435883899724	992
4	33566412	21320.457154412525	993
4	35900958	21380.479662711078	997
4	38267936	21440.504523552745	1003
4	40645015	21500.530519581602	1004
4	43025160	21560.5516492309	1005
4	45408649	21620.572950218082	1006
4	47787067	21680.594769556271	1006
4	50170046	21740.614590030457	1006
4	52550425	21800.638118435355	1006
4	54936424	21860.660423120223	1006
4	57318616	21920.682804834692	1006
4	59702091	21980.709342644353	1006
4	62084565	22040.727597178657	1006
4	64468341	22100.748449091398	1006
4	66851476	22160.772075984809	1006
4	69234280	22220.790000094043	1006
4	71616264	22280.812413896058	1006
4	73999155	22340.831813304825	1006
4	76382049	22400.849572621307	1006
4	78764802	22460.878243820782	1006
4	81147603	22520.903941235627	1006
4	83530506	22580.926601127701	1006
4	85913447	22640.949427510257	1006
4	88297122	22700.97061313269	1006
4	90680135	22760.988335200249	1006
4	93063384	22821.007866670313	1006
4	95446689	22881.029701326772	1006
4	97829637	22941.054631591714	1006
4	100211996	23001.072387159868	1006
4	102595732	23061.098020761842	1006
4	104977999	23121.122185233092	1006
4	107360726	23181.142306797264	1006
4	109743635	23241.16086709308	1006
4	112126671	23301.182445428192	1006
4	114509515	23361.210089922773	1006
4	116896985	23421.236369904306	1006
4	119280454	23481.262473964379	1005
4	121664180	23541.280648096243	1006
4	124047500	23601.296163922355	1006
5	2	20000	0
5	658630	20060	52
5	1419355	20120.017717656056	46
5	2259514	20180.041009564805	47
5	3174286	20240.059000203288	57
5	4199344	20300.080747678685	53
5	5301798	20360.107425472004	51
5	6507180	20420.129734494131	50
5	7792708	20480.146623049493	52
5	9154367	20540.169668054288	51
5	10580779	20600.189669499696	50
5	12114203	20660.209825696958	51
5	13707311	20720.232363785211	47
5	15342220	20780.254628060942	46
5	17041398	20840.281540986518	49
5	18812264	20900.305232010741	53
5	20653334	20960.328793864491	49
5	22614712	21020.354533350771	51
5	24658192	21080.373848902419	52
5	26769242	21140.394051658489	54
5	28976609	21200.411670900843	53
5	31256379	21260.435883899724	54
5	33566412	21320.457154412525	53
5	35900958	21380.479662711078	54
5	38267936	21440.504523552745	55
5	40645015	21500.530519581602	55
5	43025160	21560.5516492309	55
5	45408649	21620.572950218082	55
5	47787067	21680.594769556271	55
5	50170046	21740.614590030457	55
5	52550425	21800.638118435355	55
5	54936424	21860.660423120223	55
5	57318616	21920.682804834692	55
5	59702091	21980.709342644353	55
5	62084565	22040.727597178657	55
5	64468341	22100.748449091398	55
5	66851476	22160.772075984809	55
5	69234280	22220.790000094043	55
5	71616264	22280.812413896058	55
5	73999155	22340.831813304825	55
5	76382049	22400.849572621307	55
5	78764802	22460.878243820782	55
5	81147603	22520.903941235627	55
5	83530506	22580.926601127701	55
5	85913447	22640.949427510257	55
5	88297122	22700.97061313269	55
5	90680135	22760.988335200249	55
5	93063384	22821.007866670313	55
5	95446689	22881.029701326772	55
5	97829637	22941.054631591714	55
5	100211996	23001.072387159868	55
5	102595732	23061.098020761842	55
5	104977999	23121.122185233092	55
5	107360726	23181.142306797264	55
5	109743635	23241.16086709308	55
5	112126671	23301.182445428192	55
5	114509515	23361.210089922773	55
5	116896985	23421.236369904306	55
5	119280454	23481.262473964379	55
5	121664180	23541.280648096243	55
5	124047500	23601.296163922355	55
6	2	20000	400
6	658630	20060	1002
6	1419355	20120.017717656056	1027
6	2259514	20180.041009564805	1028
6	3174286	20240.059000203288	1011
6	4199344	20300.080747678685	1037
6	5301798	20360.107425472004	1048
6	6507180	20420.129734494131	1065
6	7792708	20480.146623049493	1088
6	9154367	20540.169668054288	1087
6	10580779	20600.189669499696	1070
6	12114203	20660.209825696958	1045
6	13707311	20720.232363785211	1018
6	15342220	20780.254628060942	1016
6	17041398	20840.281540986518	1002
6	18812264	20900.305232010741	1019
6	20653334	20960.328793864491	1004
6	22614712	21020.354533350771	1007
6	24658192	21080.373848902419	1013
6	26769242	21140.394051658489	1013
6	28976609	21200.411670900843	1036
6	31256379	21260.435883899724	1046
6	33566412	21320.457154412525	1046
6	35900958	21380.479662711078	1051
6	38267936	21440.504523552745	1058
6	40645015	21500.530519581602	1059
6	43025160	21560.5516492309	1060
6	45408649	21620.572950218082	1061
6	47787067	21680.594769556271	1061
6	50170046	21740.614590030457	1061
6	52550425	21800.638118435355	1061
6	54936424	21860.660423120223	1061
6	57318616	21920.682804834692	1061
6	59702091	21980.709342644353	1061
6	62084565	22040.727597178657	1061
6	64468341	22100.748449091398	1061
6	66851476	22160.772075984809	1061
6	69234280	22220.790000094043	1061
6	71616264	22280.812413896058	1061
6	73999155	22340.831813304825	1061
6	76382049	22400.849572621307	1061
6	78764802	22460.878243820782	1061
6	81147603	22520.903941235627	1061
6	83530506	22580.926601127701	1061
6	85913447	22640.949427510257	1061
6	88297122	22700.97061313269	1061
6	90680135	22760.988335200249	1061
6	93063384	22821.007866670313	1061
6	95446689	22881.029701326772	1061
6	97829637	22941.054631591714	1061
6	100211996	23001.072387159868	1061
6	102595732	23061.098020761842	1061
6	104977999	23121.122185233092	1061
6	107360726	23181.142306797264	1061
6	109743635	23241.16086709308	1061
6	112126671	23301.182445428192	1061
6	114509515	23361.210089922773	1061
6	116896985	23421.236369904306	1061
6	119280454	23481.262473964379	1060
6	121664180	23541.280648096243	1061
6	124047500	23601.296163922355	1061
7	2	20000	5052
7	658630	20060	20
7	1419355	20120.017717656056	39
7	2259514	20180.041009564805	342
7	3174286	20240.059000203288	2154
7	4199344	20300.080747678685	4131
7	5301798	20360.107425472004	4981
7	6507180	20420.129734494131	17247
7	7792708	20480.146623049493	22645
7	9154367	20540.169668054288	29949
7	10580779	20600.189669499696	29486
7	12114203	20660.209825696958	31087
7	13707311	20720.232363785211	32198
7	15342220	20780.254628060942	31832
7	17041398	20840.281540986518	32687
7	18812264	20900.305232010741	32252
7	20653334	20960.328793864491	30319
7	22614712	21020.354533350771	28755
7	24658192	21080.373848902419	27827
7	26769242	21140.394051658489	26282
7	28976609	21200.411670900843	25152
7	31256379	21260.435883899724	24409
7	33566412	21320.457154412525	23479
7	35900958	21380.479662711078	23106
7	38267936	21440.504523552745	22615
7	40645015	21500.530519581602	21943
7	43025160	21560.5516492309	22705
7	45408649	21620.572950218082	22759
7	47787067	21680.594769556271	22437
7	50170046	21740.614590030457	24237
7	52550425	21800.638118435355	22250
7	54936424	21860.660423120223	21813
7	57318616	21920.682804834692	23125
7	59702091	21980.709342644353	22956
7	62084565	22040.727597178657	22502
7	64468341	22100.748449091398	23120
7	66851476	22160.772075984809	22248
7	69234280	22220.790000094043	21659
7	71616264	22280.812413896058	22799
7	73999155	22340.831813304825	22466
7	76382049	22400.849572621307	23034
7	78764802	22460.878243820782	22856
7	81147603	22520.903941235627	21943
7	83530506	22580.926601127701	21822
7	85913447	22640.949427510257	22816
7	88297122	22700.97061313269	23141
7	90680135	22760.988335200249	22131
7	93063384	22821.007866670313	21743
7	95446689	22881.029701326772	21652
7	97829637	22941.054631591714	23115
7	100211996	23001.072387159868	22388
7	102595732	23061.098020761842	22788
7	104977999	23121.122185233092	22633
7	107360726	23181.142306797264	22146
7	109743635	23241.16086709308	21093
7	112126671	23301.182445428192	22379
7	114509515	23361.210089922773	22528
7	116896985	23421.236369904306	22902
7	119280454	23481.262473964379	22473
7	121664180	23541.280648096243	22197
7	124047500	23601.296163922355	21640
8	2	20000	5052
8	658630	20060	49485
8	1419355	20120.017717656056	49297
8	2259514	20180.041009564805	49337
8	3174286	20240.059000203288	49055
8	4199344	20300.080747678685	48717
8	5301798	20360.107425472004	48588
8	6507180	20420.129734494131	47599
8	7792708	20480.146623049493	47261
8	9154367	20540.169668054288	46548
8	10580779	20600.189669499696	44647
8	12114203	20660.209825696958	44167
8	13707311	20720.232363785211	43990
8	15342220	20780.254628060942	45135
8	17041398	20840.281540986518	44761
8	18812264	20900.305232010741	44413
8	20653334	20960.328793864491	43316
8	22614712	21020.354533350771	42732
8	24658192	21080.373848902419	42353
8	26769242	21140.394051658489	41660
8	28976609	21200.411670900843	40508
8	31256379	21260.435883899724	40198
8	33566412	21320.457154412525	40307
8	35900958	21380.479662711078	40309
8	38267936	21440.504523552745	39978
8	40645015	21500.530519581602	40299
8	43025160	21560.5516492309	40014
8	45408649	21620.572950218082	40106
8	47787067	21680.594769556271	40104
8	50170046	21740.614590030457	40145
8	52550425	21800.638118435355	40295
8	54936424	21860.660423120223	40175
8	57318616	21920.682804834692	40109
8	59702091	21980.709342644353	40036
8	62084565	22040.727597178657	39955
8	64468341	22100.748449091398	40053
8	66851476	22160.772075984809	40278
8	69234280	22220.790000094043	40110
8	71616264	22280.812413896058	39978
8	73999155	22340.831813304825	40180
8	76382049	22400.849572621307	39959
8	78764802	22460.878243820782	40073
8	81147603	22520.903941235627	40189
8	83530506	22580.926601127701	40233
8	85913447	22640.949427510257	39828
8	88297122	22700.97061313269	40132
8	90680135	22760.988335200249	40175
8	93063384	22821.007866670313	40182
8	95446689	22881.029701326772	40010
8	97829637	22941.054631591714	40018
8	100211996	23001.072387159868	40110
8	102595732	23061.098020761842	39977
8	104977999	23121.122185233092	40133
8	107360726	23181.142306797264	40120
8	109743635	23241.16086709308	40133
8	112126671	23301.182445428192	40240
8	114509515	23361.210089922773	40089
8	116896985	23421.236369904306	40083
8	119280454	23481.262473964379	39950
8	121664180	23541.280648096243	40137
8	124047500	23601.296163922355	39984
9	2	20000	0
9	658630	20060	0
9	1419355	20120.017717656056	0
9	2259514	20180.041009564805	5
9	3174286	20240.059000203288	0
9	4199344	20300.080747678685	0
9	5301798	20360.107425472004	3
9	6507180	20420.129734494131	26
9	7792708	20480.146623049493	25
9	9154367	20540.169668054288	72
9	10580779	20600.189669499696	18
9	12114203	20660.209825696958	9
9	13707311	20720.232363785211	2
9	15342220	20780.254628060942	29
9	17041398	20840.281540986518	1
9	18812264	20900.305232010741	0
9	20653334	20960.328793864491	0
9	22614712	21020.354533350771	0
9	24658192	21080.373848902419	10
9	26769242	21140.394051658489	28
9	28976609	21200.411670900843	0
9	31256379	21260.435883899724	0
9	33566412	21320.457154412525	2
9	35900958	21380.479662711078	2
9	38267936	21440.504523552745	0
9	40645015	21500.530519581602	0
9	43025160	21560.5516492309	0
9	45408649	21620.572950218082	0
9	47787067	21680.594769556271	2
9	50170046	21740.614590030457	0
9	52550425	21800.638118435355	0
9	54936424	21860.660423120223	0
9	57318616	21920.682804834692	3
9	59702091	21980.709342644353	1
9	62084565	22040.727597178657	0
9	64468341	22100.748449091398	0
9	66851476	22160.772075984809	0
9	69234280	22220.790000094043	1
9	71616264	22280.812413896058	0
9	73999155	22340.831813304825	0
9	76382049	22400.849572621307	0
9	78764802	22460.878243820782	0
9	81147603	22520.903941235627	0
9	83530506	22580.926601127701	0
9	85913447	22640.949427510257	1
9	88297122	22700.97061313269	0
9	90680135	22760.988335200249	0
9	93063384	22821.007866670313	1
9	95446689	22881.029701326772	0
9	97829637	22941.054631591714	0
9	100211996	23001.072387159868	0
9	102595732	23061.098020761842	0
9	104977999	23121.122185233092	3
9	107360726	23181.142306797264	0
9	109743635	23241.16086709308	0
9	112126671	23301.182445428192	2
9	114509515	23361.210089922773	0
9	116896985	23421.236369904306	3
9	119280454	23481.262473964379	1
9	121664180	23541.280648096243	0
9	124047500	23601.296163922355	0
10	2	20000	0
10	658630	20060	47430
10	1419355	20120.017717656056	47500
10	2259514	20180.041009564805	47297
10	3174286	20240.059000203288	45478
10	4199344	20300.080747678685	43555
10	5301798	20360.107425472004	42525
10	6507180	20420.129734494131	30242
10	7792708	20480.146623049493	24836
10	9154367	20540.169668054288	17598
10	10580779	20600.189669499696	18044
10	12114203	20660.209825696958	16430
10	13707311	20720.232363785211	15363
10	15342220	20780.254628060942	15755
10	17041398	20840.281540986518	14819
10	18812264	20900.305232010741	15174
10	20653334	20960.328793864491	16906
10	22614712	21020.354533350771	18480
10	24658192	21080.373848902419	19465
10	26769242	21140.394051658489	20821
10	28976609	21200.411670900843	22025
10	31256379	21260.435883899724	22723
10	33566412	21320.457154412525	23646
10	35900958	21380.479662711078	23919
10	38267936	21440.504523552745	24406
10	40645015	21500.530519581602	25144
10	43025160	21560.5516492309	24414
10	45408649	21620.572950218082	24306
10	47787067	21680.594769556271	24668
10	50170046	21740.614590030457	22816
10	52550425	21800.638118435355	24890
10	54936424	21860.660423120223	25242
10	57318616	21920.682804834692	23944
10	59702091	21980.709342644353	24077
10	62084565	22040.727597178657	24578
10	64468341	22100.748449091398	23931
10	66851476	22160.772075984809	24855
10	69234280	22220.790000094043	25414
10	71616264	22280.812413896058	24251
10	73999155	22340.831813304825	24621
10	76382049	22400.849572621307	24020
10	78764802	22460.878243820782	24247
10	81147603	22520.903941235627	25157
10	83530506	22580.926601127701	25248
10	85913447	22640.949427510257	24206
10	88297122	22700.97061313269	23893
10	90680135	22760.988335200249	24998
10	93063384	22821.007866670313	25306
10	95446689	22881.029701326772	25456
10	97829637	22941.054631591714	23929
10	100211996	23001.072387159868	24691
10	102595732	23061.098020761842	24212
10	104977999	23121.122185233092	24459
10	107360726	23181.142306797264	24980
10	109743635	23241.16086709308	25988
10	112126671	23301.182445428192	24695
10	114509515	23361.210089922773	24626
10	116896985	23421.236369904306	24278
10	119280454	23481.262473964379	24646
10	121664180	23541.280648096243	24854
10	124047500	23601.296163922355	25373
11	2	20000	5052
11	658630	20060	107865
11	1419355	20120.017717656056	130906
11	2259514	20180.041009564805	146726
11	3174286	20240.059000203288	161344
11	4199344	20300.080747678685	182952
11	5301798	20360.107425472004	198139
11	6507180	20420.129734494131	218455
11	7792708	20480.146623049493	233752
11	9154367	20540.169668054288	249443
11	10580779	20600.189669499696	263449
11	12114203	20660.209825696958	284252
11	13707311	20720.232363785211	296647
11	15342220	20780.254628060942	305301
11	17041398	20840.281540986518	318673
11	18812264	20900.305232010741	332973
11	20653334	20960.328793864491	347564
11	22614712	21020.354533350771	371641
11	24658192	21080.373848902419	388462
11	26769242	21140.394051658489	402290
11	28976609	21200.411670900843	421459
11	31256379	21260.435883899724	436307
11	33566412	21320.457154412525	442342
11	35900958	21380.479662711078	447182
11	38267936	21440.504523552745	453773
11	40645015	21500.530519581602	455850
11	43025160	21560.5516492309	456575
11	45408649	21620.572950218082	456651
11	47787067	21680.594769556271	456721
11	50170046	21740.614590030457	457104
11	52550425	21800.638118435355	457104
11	54936424	21860.660423120223	457104
11	57318616	21920.682804834692	457104
11	59702091	21980.709342644353	457104
11	62084565	22040.727597178657	457104
11	64468341	22100.748449091398	457104
11	66851476	22160.772075984809	457104
11	69234280	22220.790000094043	457104
11	71616264	22280.812413896058	457104
11	73999155	22340.831813304825	457104
11	76382049	22400.849572621307	457104
11	78764802	22460.878243820782	457104
11	81147603	22520.903941235627	457104
11	83530506	22580.926601127701	457104
11	85913447	22640.949427510257	457104
11	88297122	22700.97061313269	457104
11	90680135	22760.988335200249	457104
11	93063384	22821.007866670313	457056
11	95446689	22881.029701326772	457104
11	97829637	22941.054631591714	457104
11	100211996	23001.072387159868	457104
11	102595732	23061.098020761842	457104
11	104977999	23121.122185233092	457104
11	107360726	23181.142306797264	457104
11	109743635	23241.16086709308	457104
11	112126671	23301.182445428192	457104
11	114509515	23361.210089922773	457104
11	116896985	23421.236369904306	457104
11	119280454	23481.262473964379	456965
11	121664180	23541.280648096243	457104
11	124047500	23601.296163922355	457104
12	2	20000	0
12	658630	20060	2550
12	1419355	20120.017717656056	2461
12	2259514	20180.041009564805	2366
12	3174286	20240.059000203288	2368
12	4199344	20300.080747678685	2314
12	5301798	20360.107425472004	2497
12	6507180	20420.129734494131	2537
12	7792708	20480.146623049493	2544
12	9154367	20540.169668054288	2525
12	10580779	20600.189669499696	2488
12	12114203	20660.209825696958	2492
12	13707311	20720.232363785211	2441
12	15342220	20780.254628060942	2442
12	17041398	20840.281540986518	2495
12	18812264	20900.305232010741	2574
12	20653334	20960.328793864491	2775
12	22614712	21020.354533350771	2765
12	24658192	21080.373848902419	2718
12	26769242	21140.394051658489	2925
12	28976609	21200.411670900843	2823
12	31256379	21260.435883899724	2868
12	33566412	21320.457154412525	2877
12	35900958	21380.479662711078	2977
12	38267936	21440.504523552745	2979
12	40645015	21500.530519581602	2913
12	43025160	21560.5516492309	2881
12	45408649	21620.572950218082	2935
12	47787067	21680.594769556271	2897
12	50170046	21740.614590030457	2947
12	52550425	21800.638118435355	2860
12	54936424	21860.660423120223	2945
12	57318616	21920.682804834692	2934
12	59702091	21980.709342644353	2968
12	62084565	22040.727597178657	2920
12	64468341	22100.748449091398	2949
12	66851476	22160.772075984809	2897
12	69234280	22220.790000094043	2928
12	71616264	22280.812413896058	2950
12	73999155	22340.831813304825	2913
12	76382049	22400.849572621307	2946
12	78764802	22460.878243820782	2897
12	81147603	22520.903941235627	2900
12	83530506	22580.926601127701	2930
12	85913447	22640.949427510257	2979
12	88297122	22700.97061313269	2966
12	90680135	22760.988335200249	2871
12	93063384	22821.007866670313	2952
12	95446689	22881.029701326772	2892
12	97829637	22941.054631591714	2956
12	100211996	23001.072387159868	2921
12	102595732	23061.098020761842	3000
12	104977999	23121.122185233092	2911
12	107360726	23181.142306797264	2874
12	109743635	23241.16086709308	2919
12	112126671	23301.182445428192	2928
12	114509515	23361.210089922773	2846
12	116896985	23421.236369904306	2823
12	119280454	23481.262473964379	2882
12	121664180	23541.280648096243	2949
12	124047500	23601.296163922355	2987

