file 38665 1604340923                                           
version 2
run MoST-MaliciousCoordinated-0-20201102-16:53:00-6205
attr configname MoST-MaliciousCoordinated
attr datetime 20201102-16:53:00
attr experiment MoST-MaliciousCoordinated
attr inifile omnetpp.ini
attr iterationvars $0=false
attr iterationvarsf false-
attr measurement $0=false
attr network CoordinatedAttackScenario
attr processid 6205
attr repetition 0
attr replication #0
attr resultdir results
attr runnumber 0
attr seedset 0
param *.playgroundSizeX 10500m
param *.playgroundSizeY 7000m
param *.playgroundSizeZ 50m
param *.manager.launchConfig "xmldoc(\"most.launchd.xml\")"
param *.manager.connectAt 14400s
param *.manager.firstStepAt 20000s
param *.manager.updateInterval 250ms
param *.manager.moduleType "\"passenger1=org.car2x.veins.subprojects.simulator.nodes.Vehicle passenger2a=org.car2x.veins.subprojects.simulator.nodes.Vehicle passenger2b=org.car2x.veins.subprojects.simulator.nodes.Vehicle passenger3=org.car2x.veins.subprojects.simulator.nodes.Vehicle passenger4=org.car2x.veins.subprojects.simulator.nodes.Vehicle *=org.car2x.veins.subprojects.simulator.nodes.NonPartakingVehicle\""
param *.manager.moduleName "\"passenger1=node passenger2a=node passenger2b=node passenger3=node passenger4=node *=other\""
param *.manager.moduleDisplayString "\"passenger1='i=veins/node/car;is=vs' passenger2a='i=veins/node/car;is=vs' passenger2b='i=veins/node/car;is=vs' passenger3='i=veins/node/car;is=vs' passenger4='i=veins/node/car;is=vs' *='i=veins/node/bicycle;is=vs'\""
param *.manager.secondModuleType "\"passenger1=org.car2x.veins.subprojects.simulator.nodes.Vehicle passenger2a=org.car2x.veins.subprojects.simulator.nodes.Vehicle passenger2b=org.car2x.veins.subprojects.simulator.nodes.Vehicle passenger3=org.car2x.veins.subprojects.simulator.nodes.Vehicle passenger4=org.car2x.veins.subprojects.simulator.nodes.Vehicle *=org.car2x.veins.subprojects.simulator.nodes.NonPartakingVehicle\""
param *.rsuPlacer.rows 20
param *.rsuPlacer.cols 20
param *.rsuPlacer.rsuDisplayString "\"i=veins/node/cone;is=vs\""
param *.node2[*].app.blockchain.validatorModule "\"org.car2x.veins.subprojects.simulator.modules.validation.PlausibilityValidation\""
param *.node2[*].app.generatorModule "\"org.car2x.veins.subprojects.simulator.modules.transactions.OffsetTransactionGenerator\""
param *.node2[*].app.transactionGenerator.answerBack true
param *.node2[*].app.transactionGenerator.changeOffset false
param *.node2[*].app.transactionGenerator.transactionsPerTurn 4
param *.**.app.blockchain.statusUpdateModule "\"org.car2x.veins.subprojects.simulator.modules.status.FixedReward\""
param *.**.app.transactionGenerator.maxOffset 6000m
param *.**.app.transactionGenerator.minOffset 4500m
param *.manager.vehicleCap 1500
param *.manager.ratio 0.05
param *.**.app.transactionGenerator.range 15m
param *.**.wave.range 15m
param *.logger.logFile "\"results/MoST-MaliciousCoordinated-false--0.blockchain.log\""
param *.addressTable.logFile "\"results/MoST-MaliciousCoordinated-false--0.addresses.log\""
param *.maliciousNodes 0
param *.nodePlacer.x 500
param *.nodePlacer.y 500
param *.**.app.blockchain.statusUpdater.maxReward 4096
param *.**.app.blockchain.statusUpdater.reward 256
param *.**.app.blockchain.statusUpdater.penalty 512
param *.**.app.blockchain.statusUpdater.startingReward 64
param *.**.app.blockchain.blockValidator.decayRate 0.3
param *.**.app.blockchain.blockValidator.varianceWeight 0.67
param *.**.app.blockchain.blockValidator.maxConflicts 2
param *.**.app.blockchain.blockchain.storedChainLength 10
param *.**.app.blockchain.blockValidator.depth 3
param *.**.app.blockchain.blockValidator.threshold 0.1
param *.**.app.transactionPeriod 5s
param *.manager.secondModuleType "\"org.car2x.veins.subprojects.simulator.nodes.Vehicle\""
param *.manager.ratio 0.1
param *.rsuPlacer.rows 16
param *.rsuPlacer.cols 16
param *.rsuPlacer.rsuDisplayString "\"i=veins/node/cone;is=vs\""
param *.**.app.blockchain.statusUpdater.rsuStartingReward 2048
param *.**.app.blockchain.statusUpdater.startingReward 1024
param *.**.app.blockchain.statusUpdater.reward 512
param *.**.app.blockchain.statusUpdater.penalty 2048
param *.**.app.blockchain.statusUpdater.maxReward 4096
param *.**.app.blockchain.consensusModule "\"org.car2x.veins.subprojects.simulator.modules.consensus.BaseVotingModel\""
param *.**.app.blockchain.filterModule "\"org.car2x.veins.subprojects.simulator.modules.blocks.SimpleFilter\""
param *.**.app.blockchain.harvesterModule "\"org.car2x.veins.subprojects.simulator.modules.harvesting.DeterministicHarvester\""
param *.**.app.blockchain.statusUpdateModule "\"org.car2x.veins.subprojects.simulator.modules.status.FixedReward\""
param *.**.app.blockchain.consensusModel.harvesters 3
param *.**.app.blockchain.consensusModel.faultTolerance 6
param *.**.app.blockchain.consensusModel.timeout 3s
param *.**.app.transactionPeriod 1s
param *.**.app.transactionGenerator.range 40m
param *.**.app.applicationModule "\"org.car2x.veins.subprojects.simulator.modules.application.TestApplication\""
param *.node[*].app.blockchain.validatorModule "\"org.car2x.veins.subprojects.simulator.modules.validation.PlausibilityValidation\""
param *.node[*].app.generatorModule "\"org.car2x.veins.subprojects.simulator.modules.transactions.ValidTransactionGenerator\""
param *.node2[*].app.blockchain.validatorModule "\"org.car2x.veins.subprojects.simulator.modules.validation.SelfishValidator\""
param *.node2[*].app.generatorModule "\"org.car2x.veins.subprojects.simulator.modules.transactions.MimicTransactionGenerator\""
param *.node[*].veinsmobility.x 0
param *.node[*].veinsmobility.y 0
param *.node[*].veinsmobility.z 0
param *.node[*].veinsmobility.setHostSpeed false
param *.node[*].veinsmobility.accidentCount 0
param *.node[*].veinsmobility.accidentStart 0s
param *.node[*].veinsmobility.accidentDuration 0s
param *.node2[*].veinsmobility.x 0
param *.node2[*].veinsmobility.y 0
param *.node2[*].veinsmobility.z 0
param *.node2[*].veinsmobility.setHostSpeed false
param *.node2[*].veinsmobility.accidentCount 0
param *.node2[*].veinsmobility.accidentStart 0s
param *.node2[*].veinsmobility.accidentDuration 0s
param *.RSU[*].app.blockchain.validatorModule "\"org.car2x.veins.subprojects.simulator.modules.validation.PlausibilityValidation\""
param *.RSU[*].app.generatorModule "\"org.car2x.veins.subprojects.simulator.modules.transactions.ValidTransactionGenerator\""
param *.RSU[*].app.blockchain.blockchain.downloadAtStart false
param *.playgroundSizeX 2500m
param *.playgroundSizeY 2500m
param *.playgroundSizeZ 50m
param *.annotations.draw true
param *.obstacles.obstacles "xmldoc(\"config.xml\", \"//AnalogueModel[@type='SimpleObstacleShadowing']/obstacles\")"
param *.manager.updateInterval 1s
param *.manager.host "\"localhost\""
param *.manager.port 9999
param *.manager.autoShutdown true
param *.manager.launchConfig "xmldoc(\"erlangen.launchd.xml\")"
param *.manager.moduleType "\"org.car2x.veins.subprojects.simulator.nodes.Vehicle\""
param *.manager.secondModuleType "\"org.car2x.veins.subprojects.simulator.nodes.Vehicle\""
param *.manager.ratio 0.0
param *.connectionManager.sendDirect true
param *.connectionManager.maxInterfDist 2600m
param *.connectionManager.drawMaxIntfDist false
param *.**.wave.range 40m
param *.**.wave.speed 6Gbps
param *.**.inet.speed 10Gbps
param *.**.app.blockchain.blocksize 50000
param *.**.app.blockchain.blocktime 60s
param *.**.app.blockchain.blockValidator.maxSpeed 130kmph
param *.logger.logFile "\"results/MoST-MaliciousCoordinated-0.blockchain.log\""
param *.addressTable.logFile "\"results/MoST-MaliciousCoordinated-0.addresses.log\""
param *.RSU[*].app.blockchain.blockchain.downloadAtStart false
param *.**.app.blockchain.consensusModule "\"org.car2x.veins.subprojects.simulator.modules.consensus.TrustedEnvironment\""
param *.**.app.blockchain.filterModule "\"org.car2x.veins.subprojects.simulator.modules.blocks.SimpleFilter\""
param *.**.app.blockchain.harvesterModule "\"org.car2x.veins.subprojects.simulator.modules.harvesting.DeterministicHarvester\""
param *.**.app.blockchain.statusUpdateModule "\"org.car2x.veins.subprojects.simulator.modules.status.FixedReward\""
param *.**.app.blockchain.validatorModule "\"org.car2x.veins.subprojects.simulator.modules.validation.PlausibilityValidation\""
param *.**.app.generatorModule "\"org.car2x.veins.subprojects.simulator.modules.transactions.ValidTransactionGenerator\""
param *.**.app.applicationModule "\"org.car2x.veins.subprojects.simulator.modules.application.TestApplication\""
param *.**.app.transactionPeriod 1s
param *.**.app.transactionGenerator.range 40m
param *.**.app.blockchain.consensusModel.faultTolerance 6
param *.**.app.blockchain.consensusModel.timeout 2s
param *.node[*].veinsmobility.x 0
param *.node[*].veinsmobility.y 0
param *.node[*].veinsmobility.z 0
param *.node[*].veinsmobility.setHostSpeed false
param *.node[*].veinsmobility.accidentCount 0
param *.node[*].veinsmobility.accidentStart 0s
param *.node[*].veinsmobility.accidentDuration 0s

vector 0 CoordinatedAttackScenario.logger TotalReputationAverage ETV
vector 1 CoordinatedAttackScenario.logger ActiveType1ReputationAverage ETV
vector 2 CoordinatedAttackScenario.logger ActiveType2ReputationAverage ETV
vector 3 CoordinatedAttackScenario.logger NumberOfNodes ETV
vector 4 CoordinatedAttackScenario.logger NumberOfActiveType1Nodes ETV
vector 5 CoordinatedAttackScenario.logger NumberOfActiveType2Nodes ETV
vector 6 CoordinatedAttackScenario.logger NumberOfActiveNodes ETV
vector 7 CoordinatedAttackScenario.logger NumberOfAcceptableTransactions ETV
vector 8 CoordinatedAttackScenario.logger NumberOfPlausibleTransactions ETV
vector 9 CoordinatedAttackScenario.logger NumberOfAcceptedType2Transactions ETV
vector 10 CoordinatedAttackScenario.logger NumberOfUnacceptedType1Transactions ETV
vector 11 CoordinatedAttackScenario.logger TotalTransactions ETV
vector 12 CoordinatedAttackScenario.logger Type2Transactions ETV
0	9925 2752 2 124047500 20000 23601.296163922355 61 35.267532467532 2048 45060.698343843 39028322.265341
1	12677 2749 2 124047500 20000 23601.296163922355 61 53.928644240571 2368.281573499 83028.798702286 129076092.90715
2	15426 2103 2 124047500 20000 23601.296163922355 61 0 80.313725490196 365.91441308338 18914.997444887
3	17529 2098 2 124047500 20000 23601.296163922355 61 400 1882 111441 206136485
4	19627 2079 2 124047500 20000 23601.296163922355 61 400 1036 60219 59820799
5	21706 1976 2 124047500 20000 23601.296163922355 61 0 57 3210 172126
6	23682 2098 2 124047500 20000 23601.296163922355 61 400 1088 63429 66396089
7	25780 2148 2 124047500 20000 23601.296163922355 61 20 32687 1316485 31977288333
8	27928 2159 2 124047500 20000 23601.296163922355 61 5052 49485 2523005 106261800821
9	30087 1923 2 124047500 20000 23601.296163922355 61 0 72 250 8702
10	32010 2217 2 124047500 20000 23601.296163922355 61 0 47500 1520850 41893882688
11	34227 2280 2 124047500 20000 23601.296163922355 61 5052 457104 23599887 9918128986229
12	36507 2157 2 124047500 20000 23601.296163922355 61 0 3000 167967 472582671

