file 37737 1602012606                                           
version 2
run MoST-MaliciousCoordinated-0-20201006-19:10:22-26878
attr configname MoST-MaliciousCoordinated
attr datetime 20201006-19:10:22
attr experiment MoST-MaliciousCoordinated
attr inifile omnetpp.ini
attr iterationvars ""
attr iterationvarsf ""
attr measurement ""
attr network CoordinatedAttackScenario
attr processid 26878
attr repetition 0
attr replication #0
attr resultdir results
attr runnumber 0
attr seedset 0
param *.playgroundSizeX 10500m
param *.playgroundSizeY 7000m
param *.playgroundSizeZ 50m
param *.manager.launchConfig "xmldoc(\"most.launchd.xml\")"
param *.manager.connectAt 14400s
param *.manager.firstStepAt 20000s
param *.manager.updateInterval 250ms
param *.manager.moduleType "\"passenger1=org.car2x.veins.subprojects.simulator.nodes.Vehicle passenger2a=org.car2x.veins.subprojects.simulator.nodes.Vehicle passenger2b=org.car2x.veins.subprojects.simulator.nodes.Vehicle passenger3=org.car2x.veins.subprojects.simulator.nodes.Vehicle passenger4=org.car2x.veins.subprojects.simulator.nodes.Vehicle *=org.car2x.veins.subprojects.simulator.nodes.NonPartakingVehicle\""
param *.manager.moduleName "\"passenger1=node passenger2a=node passenger2b=node passenger3=node passenger4=node *=other\""
param *.manager.moduleDisplayString "\"passenger1='i=veins/node/car;is=vs' passenger2a='i=veins/node/car;is=vs' passenger2b='i=veins/node/car;is=vs' passenger3='i=veins/node/car;is=vs' passenger4='i=veins/node/car;is=vs' *='i=veins/node/bicycle;is=vs'\""
param *.manager.secondModuleType "\"passenger1=org.car2x.veins.subprojects.simulator.nodes.Vehicle passenger2a=org.car2x.veins.subprojects.simulator.nodes.Vehicle passenger2b=org.car2x.veins.subprojects.simulator.nodes.Vehicle passenger3=org.car2x.veins.subprojects.simulator.nodes.Vehicle passenger4=org.car2x.veins.subprojects.simulator.nodes.Vehicle *=org.car2x.veins.subprojects.simulator.nodes.NonPartakingVehicle\""
param *.rsuPlacer.rows 20
param *.rsuPlacer.cols 20
param *.rsuPlacer.rsuDisplayString "\"i=veins/node/cone;is=vs\""
param *.node2[*].app.blockchain.validatorModule "\"org.car2x.veins.subprojects.simulator.modules.validation.PlausibilityValidation\""
param *.node2[*].app.generatorModule "\"org.car2x.veins.subprojects.simulator.modules.transactions.TrafficJamGenerator\""
param *.node2[*].app.transactionGenerator.transactionsPerTurn 2
param *.**.app.blockchain.statusUpdateModule "\"org.car2x.veins.subprojects.simulator.modules.status.FixedReward\""
param *.**.app.blockchain.statusUpdater.reward 256
param *.**.app.blockchain.statusUpdater.penalty 512
param *.**.app.blockchain.statusUpdater.startingReward 64
param *.**.app.transactionGenerator.maxOffset 40m
param *.**.app.transactionGenerator.minOffset 30m
param *.manager.vehicleCap 1500
param *.manager.ratio 0
param *.**.app.transactionGenerator.range 15m
param *.**.wave.range 15m
param *.logger.logFile "\"results/MoST-MaliciousCoordinated--0.blockchain.log\""
param *.addressTable.logFile "\"results/MoST-MaliciousCoordinated--0.addresses.log\""
param *.node[988].app.generatorModule "\"org.car2x.veins.subprojects.simulator.modules.transactions.AttackInitiator\""
param *.node[988].app.transactionGenerator.startAt 20840s
param *.node[988].app.transactionGenerator.stopAt 21020s
param *.maliciousNodes 5
param *.nodePlacer.x 500
param *.nodePlacer.y 500
param *.node[*].app.blockchain.blockValidator.decayRate 0.3
param *.**.app.transactionPeriod 5s
param *.manager.secondModuleType "\"org.car2x.veins.subprojects.simulator.nodes.Vehicle\""
param *.manager.ratio 0.1
param *.rsuPlacer.rows 16
param *.rsuPlacer.cols 16
param *.rsuPlacer.rsuDisplayString "\"i=veins/node/cone;is=vs\""
param *.**.app.blockchain.statusUpdater.rsuStartingReward 2048
param *.**.app.blockchain.statusUpdater.startingReward 1024
param *.**.app.blockchain.statusUpdater.reward 512
param *.**.app.blockchain.statusUpdater.penalty 2048
param *.**.app.blockchain.statusUpdater.maxReward 4096
param *.**.app.blockchain.consensusModule "\"org.car2x.veins.subprojects.simulator.modules.consensus.BaseVotingModel\""
param *.**.app.blockchain.filterModule "\"org.car2x.veins.subprojects.simulator.modules.blocks.SimpleFilter\""
param *.**.app.blockchain.harvesterModule "\"org.car2x.veins.subprojects.simulator.modules.harvesting.DeterministicHarvester\""
param *.**.app.blockchain.statusUpdateModule "\"org.car2x.veins.subprojects.simulator.modules.status.FixedReward\""
param *.**.app.blockchain.consensusModel.harvesters 3
param *.**.app.blockchain.consensusModel.faultTolerance 5
param *.**.app.blockchain.consensusModel.timeout 3s
param *.**.app.transactionPeriod 1s
param *.**.app.transactionGenerator.range 40m
param *.**.app.applicationModule "\"org.car2x.veins.subprojects.simulator.modules.application.TestApplication\""
param *.node[*].app.blockchain.validatorModule "\"org.car2x.veins.subprojects.simulator.modules.validation.PlausibilityValidation\""
param *.node[*].app.generatorModule "\"org.car2x.veins.subprojects.simulator.modules.transactions.ValidTransactionGenerator\""
param *.node2[*].app.blockchain.validatorModule "\"org.car2x.veins.subprojects.simulator.modules.validation.SelfishValidator\""
param *.node2[*].app.generatorModule "\"org.car2x.veins.subprojects.simulator.modules.transactions.MimicTransactionGenerator\""
param *.node[*].veinsmobility.x 0
param *.node[*].veinsmobility.y 0
param *.node[*].veinsmobility.z 0
param *.node[*].veinsmobility.setHostSpeed false
param *.node[*].veinsmobility.accidentCount 0
param *.node[*].veinsmobility.accidentStart 0s
param *.node[*].veinsmobility.accidentDuration 0s
param *.node2[*].veinsmobility.x 0
param *.node2[*].veinsmobility.y 0
param *.node2[*].veinsmobility.z 0
param *.node2[*].veinsmobility.setHostSpeed false
param *.node2[*].veinsmobility.accidentCount 0
param *.node2[*].veinsmobility.accidentStart 0s
param *.node2[*].veinsmobility.accidentDuration 0s
param *.RSU[*].app.blockchain.validatorModule "\"org.car2x.veins.subprojects.simulator.modules.validation.PlausibilityValidation\""
param *.RSU[*].app.generatorModule "\"org.car2x.veins.subprojects.simulator.modules.transactions.ValidTransactionGenerator\""
param *.RSU[*].app.blockchain.blockchain.downloadAtStart false
param *.playgroundSizeX 2500m
param *.playgroundSizeY 2500m
param *.playgroundSizeZ 50m
param *.annotations.draw true
param *.obstacles.obstacles "xmldoc(\"config.xml\", \"//AnalogueModel[@type='SimpleObstacleShadowing']/obstacles\")"
param *.manager.updateInterval 1s
param *.manager.host "\"localhost\""
param *.manager.port 9999
param *.manager.autoShutdown true
param *.manager.launchConfig "xmldoc(\"erlangen.launchd.xml\")"
param *.manager.moduleType "\"org.car2x.veins.subprojects.simulator.nodes.Vehicle\""
param *.manager.secondModuleType "\"org.car2x.veins.subprojects.simulator.nodes.Vehicle\""
param *.manager.ratio 0.0
param *.connectionManager.sendDirect true
param *.connectionManager.maxInterfDist 2600m
param *.connectionManager.drawMaxIntfDist false
param *.**.wave.range 40m
param *.**.wave.speed 6Gbps
param *.**.inet.speed 10Gbps
param *.**.app.blockchain.blocksize 50000
param *.**.app.blockchain.blocktime 60s
param *.**.app.blockchain.blockValidator.maxSpeed 130kmph
param *.logger.logFile "\"results/MoST-MaliciousCoordinated-0.blockchain.log\""
param *.addressTable.logFile "\"results/MoST-MaliciousCoordinated-0.addresses.log\""
param *.RSU[*].app.blockchain.blockchain.downloadAtStart false
param *.**.app.blockchain.consensusModule "\"org.car2x.veins.subprojects.simulator.modules.consensus.TrustedEnvironment\""
param *.**.app.blockchain.filterModule "\"org.car2x.veins.subprojects.simulator.modules.blocks.SimpleFilter\""
param *.**.app.blockchain.harvesterModule "\"org.car2x.veins.subprojects.simulator.modules.harvesting.DeterministicHarvester\""
param *.**.app.blockchain.statusUpdateModule "\"org.car2x.veins.subprojects.simulator.modules.status.FixedReward\""
param *.**.app.blockchain.validatorModule "\"org.car2x.veins.subprojects.simulator.modules.validation.PlausibilityValidation\""
param *.**.app.generatorModule "\"org.car2x.veins.subprojects.simulator.modules.transactions.ValidTransactionGenerator\""
param *.**.app.applicationModule "\"org.car2x.veins.subprojects.simulator.modules.application.TestApplication\""
param *.**.app.transactionPeriod 1s
param *.**.app.transactionGenerator.range 40m
param *.**.app.blockchain.consensusModel.faultTolerance 3
param *.**.app.blockchain.consensusModel.timeout 2s
param *.node[*].veinsmobility.x 0
param *.node[*].veinsmobility.y 0
param *.node[*].veinsmobility.z 0
param *.node[*].veinsmobility.setHostSpeed false
param *.node[*].veinsmobility.accidentCount 0
param *.node[*].veinsmobility.accidentStart 0s
param *.node[*].veinsmobility.accidentDuration 0s

vector 0 CoordinatedAttackScenario.logger TotalReputationAverage ETV
vector 1 CoordinatedAttackScenario.logger ActiveType1ReputationAverage ETV
vector 2 CoordinatedAttackScenario.logger ActiveType2ReputationAverage ETV
vector 3 CoordinatedAttackScenario.logger NumberOfNodes ETV
vector 4 CoordinatedAttackScenario.logger NumberOfActiveType1Nodes ETV
vector 5 CoordinatedAttackScenario.logger NumberOfActiveType2Nodes ETV
vector 6 CoordinatedAttackScenario.logger NumberOfActiveNodes ETV
vector 7 CoordinatedAttackScenario.logger NumberOfAcceptableTransactions ETV
vector 8 CoordinatedAttackScenario.logger NumberOfPlausibleTransactions ETV
vector 9 CoordinatedAttackScenario.logger NumberOfAcceptedType2Transactions ETV
vector 10 CoordinatedAttackScenario.logger NumberOfUnacceptedType1Transactions ETV
vector 11 CoordinatedAttackScenario.logger TotalTransactions ETV
vector 12 CoordinatedAttackScenario.logger Type2Transactions ETV
0	9671 2705 2 123500069 20000 23601.253467474644 60 40.652005174644 2048 56191.347779162 57625222.678168
1	12376 2706 2 123500069 20000 23601.253467474644 60 61.434995112414 2154.306547619 98706.763910233 175216635.09064
2	15082 2030 2 123500069 20000 23601.253467474644 60 0 2003.8 27829.3 29660696.73
3	17112 2062 2 123500069 20000 23601.253467474644 60 400 1886 110004 204193348
4	19174 2061 2 123500069 20000 23601.253467474644 60 400 1084 62344 65216236
5	21235 1883 2 123500069 20000 23601.253467474644 60 0 5 233 1157
6	23118 2061 2 123500069 20000 23601.253467474644 60 400 1084 62577 65707801
7	25179 2112 2 123500069 20000 23601.253467474644 60 24 34475 1125345 24006261761
8	27291 2122 2 123500069 20000 23601.253467474644 60 5052 49516 2568171 111933633789
9	29413 1914 2 123500069 20000 23601.253467474644 60 0 31 546 8578
10	31327 2179 2 123500069 20000 23601.253467474644 60 0 49976 1829317 59426934037
11	33506 2241 2 123500069 20000 23601.253467474644 60 5052 456832 23583525 9952229523329
12	35747 1989 2 123500069 20000 23601.253467474644 60 0 38 936 19856

