version 2
run MoST-MaliciousCoordinated-2-20201101-05:47:28-13691
attr configname MoST-MaliciousCoordinated
attr datetime 20201101-05:47:28
attr experiment MoST-MaliciousCoordinated
attr inifile omnetpp.ini
attr iterationvars $0=20
attr iterationvarsf 20-
attr measurement $0=20
attr network CoordinatedAttackScenario
attr processid 13691
attr repetition 0
attr replication #0
attr resultdir results
attr runnumber 2
attr seedset 2
param *.playgroundSizeX 10500m
param *.playgroundSizeY 7000m
param *.playgroundSizeZ 50m
param *.manager.launchConfig "xmldoc(\"most.launchd.xml\")"
param *.manager.connectAt 14400s
param *.manager.firstStepAt 20000s
param *.manager.updateInterval 250ms
param *.manager.moduleType "\"passenger1=org.car2x.veins.subprojects.simulator.nodes.Vehicle passenger2a=org.car2x.veins.subprojects.simulator.nodes.Vehicle passenger2b=org.car2x.veins.subprojects.simulator.nodes.Vehicle passenger3=org.car2x.veins.subprojects.simulator.nodes.Vehicle passenger4=org.car2x.veins.subprojects.simulator.nodes.Vehicle *=org.car2x.veins.subprojects.simulator.nodes.NonPartakingVehicle\""
param *.manager.moduleName "\"passenger1=node passenger2a=node passenger2b=node passenger3=node passenger4=node *=other\""
param *.manager.moduleDisplayString "\"passenger1='i=veins/node/car;is=vs' passenger2a='i=veins/node/car;is=vs' passenger2b='i=veins/node/car;is=vs' passenger3='i=veins/node/car;is=vs' passenger4='i=veins/node/car;is=vs' *='i=veins/node/bicycle;is=vs'\""
param *.manager.secondModuleType "\"passenger1=org.car2x.veins.subprojects.simulator.nodes.Vehicle passenger2a=org.car2x.veins.subprojects.simulator.nodes.Vehicle passenger2b=org.car2x.veins.subprojects.simulator.nodes.Vehicle passenger3=org.car2x.veins.subprojects.simulator.nodes.Vehicle passenger4=org.car2x.veins.subprojects.simulator.nodes.Vehicle *=org.car2x.veins.subprojects.simulator.nodes.NonPartakingVehicle\""
param *.rsuPlacer.rows 20
param *.rsuPlacer.cols 20
param *.rsuPlacer.rsuDisplayString "\"i=veins/node/cone;is=vs\""
param *.node2[*].app.blockchain.validatorModule "\"org.car2x.veins.subprojects.simulator.modules.validation.PlausibilityValidation\""
param *.node2[*].app.generatorModule "\"org.car2x.veins.subprojects.simulator.modules.transactions.TrafficJamGenerator\""
param *.node2[*].app.transactionGenerator.transactionsPerTurn 2
param *.**.app.blockchain.statusUpdateModule "\"org.car2x.veins.subprojects.simulator.modules.status.FixedReward\""
param *.**.app.transactionGenerator.maxOffset 40m
param *.**.app.transactionGenerator.minOffset 30m
param *.manager.vehicleCap 1500
param *.manager.ratio 0
param *.**.app.transactionGenerator.range 15m
param *.**.wave.range 15m
param *.logger.logFile "\"results/MoST-MaliciousCoordinated-20--2.blockchain.log\""
param *.addressTable.logFile "\"results/MoST-MaliciousCoordinated-20--2.addresses.log\""
param *.node[988].app.generatorModule "\"org.car2x.veins.subprojects.simulator.modules.transactions.AttackInitiator\""
param *.node[988].app.transactionGenerator.startAt 20840s
param *.node[988].app.transactionGenerator.stopAt 21020s
param *.maliciousNodes 20
param *.nodePlacer.x 500
param *.nodePlacer.y 500
param *.**.app.blockchain.statusUpdater.maxReward 4096
param *.**.app.blockchain.statusUpdater.reward 256
param *.**.app.blockchain.statusUpdater.penalty 512
param *.**.app.blockchain.statusUpdater.startingReward 64
param *.**.app.blockchain.blockValidator.decayRate 0.3
param *.**.app.blockchain.blockValidator.varianceWeight 0.67
param *.**.app.blockchain.blockValidator.maxConflicts 2
param *.**.app.blockchain.blockchain.storedChainLength 10
param *.**.app.blockchain.blockValidator.depth 3
param *.**.app.blockchain.blockValidator.threshold 0.1
param *.**.app.transactionPeriod 5s
param *.manager.secondModuleType "\"org.car2x.veins.subprojects.simulator.nodes.Vehicle\""
param *.manager.ratio 0.1
param *.rsuPlacer.rows 16
param *.rsuPlacer.cols 16
param *.rsuPlacer.rsuDisplayString "\"i=veins/node/cone;is=vs\""
param *.**.app.blockchain.statusUpdater.rsuStartingReward 2048
param *.**.app.blockchain.statusUpdater.startingReward 1024
param *.**.app.blockchain.statusUpdater.reward 512
param *.**.app.blockchain.statusUpdater.penalty 2048
param *.**.app.blockchain.statusUpdater.maxReward 4096
param *.**.app.blockchain.consensusModule "\"org.car2x.veins.subprojects.simulator.modules.consensus.BaseVotingModel\""
param *.**.app.blockchain.filterModule "\"org.car2x.veins.subprojects.simulator.modules.blocks.SimpleFilter\""
param *.**.app.blockchain.harvesterModule "\"org.car2x.veins.subprojects.simulator.modules.harvesting.DeterministicHarvester\""
param *.**.app.blockchain.statusUpdateModule "\"org.car2x.veins.subprojects.simulator.modules.status.FixedReward\""
param *.**.app.blockchain.consensusModel.harvesters 3
param *.**.app.blockchain.consensusModel.faultTolerance 6
param *.**.app.blockchain.consensusModel.timeout 3s
param *.**.app.transactionPeriod 1s
param *.**.app.transactionGenerator.range 40m
param *.**.app.applicationModule "\"org.car2x.veins.subprojects.simulator.modules.application.TestApplication\""
param *.node[*].app.blockchain.validatorModule "\"org.car2x.veins.subprojects.simulator.modules.validation.PlausibilityValidation\""
param *.node[*].app.generatorModule "\"org.car2x.veins.subprojects.simulator.modules.transactions.ValidTransactionGenerator\""
param *.node2[*].app.blockchain.validatorModule "\"org.car2x.veins.subprojects.simulator.modules.validation.SelfishValidator\""
param *.node2[*].app.generatorModule "\"org.car2x.veins.subprojects.simulator.modules.transactions.MimicTransactionGenerator\""
param *.node[*].veinsmobility.x 0
param *.node[*].veinsmobility.y 0
param *.node[*].veinsmobility.z 0
param *.node[*].veinsmobility.setHostSpeed false
param *.node[*].veinsmobility.accidentCount 0
param *.node[*].veinsmobility.accidentStart 0s
param *.node[*].veinsmobility.accidentDuration 0s
param *.node2[*].veinsmobility.x 0
param *.node2[*].veinsmobility.y 0
param *.node2[*].veinsmobility.z 0
param *.node2[*].veinsmobility.setHostSpeed false
param *.node2[*].veinsmobility.accidentCount 0
param *.node2[*].veinsmobility.accidentStart 0s
param *.node2[*].veinsmobility.accidentDuration 0s
param *.RSU[*].app.blockchain.validatorModule "\"org.car2x.veins.subprojects.simulator.modules.validation.PlausibilityValidation\""
param *.RSU[*].app.generatorModule "\"org.car2x.veins.subprojects.simulator.modules.transactions.ValidTransactionGenerator\""
param *.RSU[*].app.blockchain.blockchain.downloadAtStart false
param *.playgroundSizeX 2500m
param *.playgroundSizeY 2500m
param *.playgroundSizeZ 50m
param *.annotations.draw true
param *.obstacles.obstacles "xmldoc(\"config.xml\", \"//AnalogueModel[@type='SimpleObstacleShadowing']/obstacles\")"
param *.manager.updateInterval 1s
param *.manager.host "\"localhost\""
param *.manager.port 9999
param *.manager.autoShutdown true
param *.manager.launchConfig "xmldoc(\"erlangen.launchd.xml\")"
param *.manager.moduleType "\"org.car2x.veins.subprojects.simulator.nodes.Vehicle\""
param *.manager.secondModuleType "\"org.car2x.veins.subprojects.simulator.nodes.Vehicle\""
param *.manager.ratio 0.0
param *.connectionManager.sendDirect true
param *.connectionManager.maxInterfDist 2600m
param *.connectionManager.drawMaxIntfDist false
param *.**.wave.range 40m
param *.**.wave.speed 6Gbps
param *.**.inet.speed 10Gbps
param *.**.app.blockchain.blocksize 50000
param *.**.app.blockchain.blocktime 60s
param *.**.app.blockchain.blockValidator.maxSpeed 130kmph
param *.logger.logFile "\"results/MoST-MaliciousCoordinated-2.blockchain.log\""
param *.addressTable.logFile "\"results/MoST-MaliciousCoordinated-2.addresses.log\""
param *.RSU[*].app.blockchain.blockchain.downloadAtStart false
param *.**.app.blockchain.consensusModule "\"org.car2x.veins.subprojects.simulator.modules.consensus.TrustedEnvironment\""
param *.**.app.blockchain.filterModule "\"org.car2x.veins.subprojects.simulator.modules.blocks.SimpleFilter\""
param *.**.app.blockchain.harvesterModule "\"org.car2x.veins.subprojects.simulator.modules.harvesting.DeterministicHarvester\""
param *.**.app.blockchain.statusUpdateModule "\"org.car2x.veins.subprojects.simulator.modules.status.FixedReward\""
param *.**.app.blockchain.validatorModule "\"org.car2x.veins.subprojects.simulator.modules.validation.PlausibilityValidation\""
param *.**.app.generatorModule "\"org.car2x.veins.subprojects.simulator.modules.transactions.ValidTransactionGenerator\""
param *.**.app.applicationModule "\"org.car2x.veins.subprojects.simulator.modules.application.TestApplication\""
param *.**.app.transactionPeriod 1s
param *.**.app.transactionGenerator.range 40m
param *.**.app.blockchain.consensusModel.faultTolerance 6
param *.**.app.blockchain.consensusModel.timeout 2s
param *.node[*].veinsmobility.x 0
param *.node[*].veinsmobility.y 0
param *.node[*].veinsmobility.z 0
param *.node[*].veinsmobility.setHostSpeed false
param *.node[*].veinsmobility.accidentCount 0
param *.node[*].veinsmobility.accidentStart 0s
param *.node[*].veinsmobility.accidentDuration 0s

vector 0 CoordinatedAttackScenario.logger TotalReputationAverage ETV
vector 1 CoordinatedAttackScenario.logger ActiveType1ReputationAverage ETV
vector 2 CoordinatedAttackScenario.logger ActiveType2ReputationAverage ETV
vector 3 CoordinatedAttackScenario.logger NumberOfNodes ETV
vector 4 CoordinatedAttackScenario.logger NumberOfActiveType1Nodes ETV
vector 5 CoordinatedAttackScenario.logger NumberOfActiveType2Nodes ETV
vector 6 CoordinatedAttackScenario.logger NumberOfActiveNodes ETV
vector 7 CoordinatedAttackScenario.logger NumberOfAcceptableTransactions ETV
vector 8 CoordinatedAttackScenario.logger NumberOfPlausibleTransactions ETV
vector 9 CoordinatedAttackScenario.logger NumberOfAcceptedType2Transactions ETV
vector 10 CoordinatedAttackScenario.logger NumberOfUnacceptedType1Transactions ETV
vector 11 CoordinatedAttackScenario.logger TotalTransactions ETV
vector 12 CoordinatedAttackScenario.logger Type2Transactions ETV
0	2	20000	2048
0	660603	20060	47.651929824561
0	1420891	20120.0259996389	35.639662994167
0	2262499	20180.049176026103	52.787671232877
0	3180215	20240.067053432778	167.45719489982
0	4204938	20300.092485792309	280.35634218289
0	5307880	20360.111749775545	396.51176133104
0	6523945	20420.132978421753	687.32851584213
0	7809243	20480.156690777528	1136.6519847743
0	9173195	20540.182193636612	1229.0750134916
0	10604661	20600.201039905533	1214.847266881
0	12137979	20660.224846209291	1263.0689470871
0	13728462	20720.246733675982	1314.8518913159
0	15364558	20780.271948041192	1366.0883919063
0	17065650	20840.298652401137	1268.4631578947
0	18837334	20900.317117278994	1285.7211993688
0	20680069	20960.335943227336	1276.086270384
0	22642571	21020.360748007592	1170.9068911099
0	24684387	21080.386288591157	1117.3250920568
0	26799289	21140.409207991331	1094.8926880589
0	29007319	21200.432914269974	1010.7932667017
0	31289627	21260.456025954753	913.9589689637
0	33600623	21320.475259560735	875.72908995266
0	35936524	21380.493987055104	844.20778537612
0	38304474	21440.512603213675	815.88269331931
0	40681576	21500.529530481537	739.67753813782
0	43062984	21560.550136912268	753.47448711205
0	45444731	21620.573769721497	763.04681746449
0	47826650	21680.593547212563	742.21620199895
0	50210622	21740.618594023431	711.60599684377
0	52594673	21800.640064438428	733.00263019463
0	54978730	21860.657471340473	748.20778537612
0	57362808	21920.682382012392	741.64281956865
0	59747404	21980.706812925409	725.62861651762
0	62130756	22040.731628001174	714.11257233035
0	64515249	22100.751862538466	693.87006838506
0	66898961	22160.77091213502	698.80852183062
0	69283091	22220.793533804908	707.4834297738
0	71667162	22280.812193337479	682.3150973172
0	74051902	22340.834348402496	719.0841662283
0	76436002	22400.857442027134	681.85218306155
0	78819049	22460.879044094306	721.78011572856
0	81203277	22520.904817125437	763.85586533403
0	83588476	22580.922466562137	712.49500263019
0	85971354	22640.946452068571	708.67964229353
0	88355249	22700.966736357658	669.53655970542
0	90739622	22760.987426151125	722.64702788006
0	93124097	22821.008172043196	707.76170436612
0	95507794	22881.028986501137	720.63124671226
0	97892553	22941.05434372071	735.78011572856
0	100276458	23001.07107528776	756.78011572856
0	102660003	23061.092597700794	730.98737506575
0	105043944	23121.115921901333	715.32140978432
0	107428718	23181.135211249339	739.65228826933
0	109813128	23241.154050899768	721.15833771699
0	112194101	23301.172797633445	644.45239347712
0	114580937	23361.197587427463	709.21251972646
0	116964650	23421.224507195431	734.76380852183
0	119353173	23481.248746536805	665.71804313519
0	121737310	23541.273964770492	674.91162546028
0	124121429	23601.296161323341	715.51446607049
1	2	20000	2048
1	660603	20060	67.971971971972
1	1420891	20120.0259996389	53.755620723363
1	2262499	20180.049176026103	81.989361702128
1	3180215	20240.067053432778	269.337890625
1	4204938	20300.092485792309	460.91561590689
1	5307880	20360.111749775545	670.33947623666
1	6523945	20420.132978421753	1162.1278195489
1	7809243	20480.156690777528	1912.4455626715
1	9173195	20540.182193636612	2102.9325946445
1	10604661	20600.201039905533	2142.6323251418
1	12137979	20660.224846209291	2263.6034482759
1	13728462	20720.246733675982	2410.1337890625
1	15364558	20780.271948041192	2495.6361867704
1	17065650	20840.298652401137	2388.2656095144
1	18837334	20900.317117278994	2401.6699702676
1	20680069	20960.335943227336	2374.7345924453
1	22642571	21020.360748007592	2188.748015873
1	24684387	21080.386288591157	2085.0613861386
1	26799289	21140.409207991331	2036.6712598425
1	29007319	21200.432914269974	1841.2273603083
1	31289627	21260.456025954753	1656.5583173996
1	33600623	21320.475259560735	1580.5873925501
1	35936524	21380.493987055104	1522.2188392008
1	38304474	21440.512603213675	1464.5850661626
1	40681576	21500.529530481537	1318.4815864023
1	43062984	21560.550136912268	1346.9037735849
1	45444731	21620.573769721497	1362.5051837889
1	47826650	21680.593547212563	1323.6399622997
1	50210622	21740.618594023431	1266.2092365693
1	52594673	21800.640064438428	1306.3100848256
1	54978730	21860.657471340473	1338.6993402451
1	57362808	21920.682382012392	1320.8416588124
1	59747404	21980.706812925409	1296.1611687088
1	62130756	22040.731628001174	1269.2412818096
1	64515249	22100.751862538466	1237.3242224317
1	66898961	22160.77091213502	1249.0754005655
1	69283091	22220.793533804908	1266.0292177191
1	71667162	22280.812193337479	1217.5164938737
1	74051902	22340.834348402496	1273.9557021678
1	76436002	22400.857442027134	1219.041470311
1	78819049	22460.879044094306	1282.1404335533
1	81203277	22520.904817125437	1363.6050895382
1	83588476	22580.922466562137	1269.5570216777
1	85971354	22640.946452068571	1257.3138548539
1	88355249	22700.966736357658	1194.3892554194
1	90739622	22760.987426151125	1283.753063148
1	93124097	22821.008172043196	1262.5504241282
1	95507794	22881.028986501137	1285.137606032
1	97892553	22941.05434372071	1304.027332705
1	100276458	23001.07107528776	1346.8539114043
1	102660003	23061.092597700794	1306.3619227144
1	105043944	23121.115921901333	1281.2450518379
1	107428718	23181.135211249339	1323.3195098963
1	109813128	23241.154050899768	1285.0471253534
1	112194101	23301.172797633445	1154.0311027333
1	114580937	23361.197587427463	1270.3543826579
1	116964650	23421.224507195431	1315.5221489161
1	119353173	23481.248746536805	1189.7869934025
1	121737310	23541.273964770492	1201.7832233742
1	124121429	23601.296161323341	1277.8586239397
2	2	20000	0
2	660603	20060	0
2	1420891	20120.0259996389	0
2	2262499	20180.049176026103	0
2	3180215	20240.067053432778	0
2	4204938	20300.092485792309	0
2	5307880	20360.111749775545	0
2	6523945	20420.132978421753	0
2	7809243	20480.156690777528	0
2	9173195	20540.182193636612	0
2	10604661	20600.201039905533	0
2	12137979	20660.224846209291	0
2	13728462	20720.246733675982	0
2	15364558	20780.271948041192	0
2	17065650	20840.298652401137	24.615384615385
2	18837334	20900.317117278994	1043.55
2	20680069	20960.335943227336	1842.85
2	22642571	21020.360748007592	981.8
2	24684387	21080.386288591157	906.15
2	26799289	21140.409207991331	606.65
2	29007319	21200.432914269974	516.2
2	31289627	21260.456025954753	233.8
2	33600623	21320.475259560735	494.3
2	35936524	21380.493987055104	249.35
2	38304474	21440.512603213675	73.1
2	40681576	21500.529530481537	492.75
2	43062984	21560.550136912268	231.85
2	45444731	21620.573769721497	246.7
2	47826650	21680.593547212563	328.55
2	50210622	21740.618594023431	465.75
2	52594673	21800.640064438428	372.15
2	54978730	21860.657471340473	99.15
2	57362808	21920.682382012392	422.5
2	59747404	21980.706812925409	209.65
2	62130756	22040.731628001174	543.15
2	64515249	22100.751862538466	312.3
2	66898961	22160.77091213502	158.3
2	69283091	22220.793533804908	83.45
2	71667162	22280.812193337479	264.8
2	74051902	22340.834348402496	765.6
2	76436002	22400.857442027134	139.9
2	78819049	22460.879044094306	587.65
2	81203277	22520.904817125437	265.25
2	83588476	22580.922466562137	372.65
2	85971354	22640.946452068571	659.5
2	88355249	22700.966736357658	277.1
2	90739622	22760.987426151125	584.5
2	93124097	22821.008172043196	294.45
2	95507794	22881.028986501137	319.45
2	97892553	22941.05434372071	757.25
2	100276458	23001.07107528776	481.35
2	102660003	23061.092597700794	177.85
2	105043944	23121.115921901333	21.25
2	107428718	23181.135211249339	101.85
2	109813128	23241.154050899768	374.35
2	112194101	23301.172797633445	33.85
2	114580937	23361.197587427463	18.35
2	116964650	23421.224507195431	50.85
2	119353173	23481.248746536805	158.3
2	121737310	23541.273964770492	395.75
2	124121429	23601.296161323341	219.25
3	2	20000	400
3	660603	20060	1425
3	1420891	20120.0259996389	1543
3	2262499	20180.049176026103	1606
3	3180215	20240.067053432778	1647
3	4204938	20300.092485792309	1695
3	5307880	20360.111749775545	1743
3	6523945	20420.132978421753	1799
3	7809243	20480.156690777528	1839
3	9173195	20540.182193636612	1853
3	10604661	20600.201039905533	1866
3	12137979	20660.224846209291	1871
3	13728462	20720.246733675982	1877
3	15364558	20780.271948041192	1878
3	17065650	20840.298652401137	1900
3	18837334	20900.317117278994	1901
3	20680069	20960.335943227336	1901
3	22642571	21020.360748007592	1901
3	24684387	21080.386288591157	1901
3	26799289	21140.409207991331	1901
3	29007319	21200.432914269974	1901
3	31289627	21260.456025954753	1901
3	33600623	21320.475259560735	1901
3	35936524	21380.493987055104	1901
3	38304474	21440.512603213675	1901
3	40681576	21500.529530481537	1901
3	43062984	21560.550136912268	1901
3	45444731	21620.573769721497	1901
3	47826650	21680.593547212563	1901
3	50210622	21740.618594023431	1901
3	52594673	21800.640064438428	1901
3	54978730	21860.657471340473	1901
3	57362808	21920.682382012392	1901
3	59747404	21980.706812925409	1901
3	62130756	22040.731628001174	1901
3	64515249	22100.751862538466	1901
3	66898961	22160.77091213502	1901
3	69283091	22220.793533804908	1901
3	71667162	22280.812193337479	1901
3	74051902	22340.834348402496	1901
3	76436002	22400.857442027134	1901
3	78819049	22460.879044094306	1901
3	81203277	22520.904817125437	1901
3	83588476	22580.922466562137	1901
3	85971354	22640.946452068571	1901
3	88355249	22700.966736357658	1901
3	90739622	22760.987426151125	1901
3	93124097	22821.008172043196	1901
3	95507794	22881.028986501137	1901
3	97892553	22941.05434372071	1901
3	100276458	23001.07107528776	1901
3	102660003	23061.092597700794	1901
3	105043944	23121.115921901333	1901
3	107428718	23181.135211249339	1901
3	109813128	23241.154050899768	1901
3	112194101	23301.172797633445	1901
3	114580937	23361.197587427463	1901
3	116964650	23421.224507195431	1901
3	119353173	23481.248746536805	1901
3	121737310	23541.273964770492	1901
3	124121429	23601.296161323341	1901
4	2	20000	400
4	660603	20060	999
4	1420891	20120.0259996389	1023
4	2262499	20180.049176026103	1034
4	3180215	20240.067053432778	1024
4	4204938	20300.092485792309	1031
4	5307880	20360.111749775545	1031
4	6523945	20420.132978421753	1064
4	7809243	20480.156690777528	1093
4	9173195	20540.182193636612	1083
4	10604661	20600.201039905533	1058
4	12137979	20660.224846209291	1044
4	13728462	20720.246733675982	1024
4	15364558	20780.271948041192	1028
4	17065650	20840.298652401137	1009
4	18837334	20900.317117278994	1009
4	20680069	20960.335943227336	1006
4	22642571	21020.360748007592	1008
4	24684387	21080.386288591157	1010
4	26799289	21140.409207991331	1016
4	29007319	21200.432914269974	1038
4	31289627	21260.456025954753	1046
4	33600623	21320.475259560735	1047
4	35936524	21380.493987055104	1051
4	38304474	21440.512603213675	1058
4	40681576	21500.529530481537	1059
4	43062984	21560.550136912268	1060
4	45444731	21620.573769721497	1061
4	47826650	21680.593547212563	1061
4	50210622	21740.618594023431	1061
4	52594673	21800.640064438428	1061
4	54978730	21860.657471340473	1061
4	57362808	21920.682382012392	1061
4	59747404	21980.706812925409	1061
4	62130756	22040.731628001174	1061
4	64515249	22100.751862538466	1061
4	66898961	22160.77091213502	1061
4	69283091	22220.793533804908	1061
4	71667162	22280.812193337479	1061
4	74051902	22340.834348402496	1061
4	76436002	22400.857442027134	1061
4	78819049	22460.879044094306	1061
4	81203277	22520.904817125437	1061
4	83588476	22580.922466562137	1061
4	85971354	22640.946452068571	1061
4	88355249	22700.966736357658	1061
4	90739622	22760.987426151125	1061
4	93124097	22821.008172043196	1061
4	95507794	22881.028986501137	1061
4	97892553	22941.05434372071	1061
4	100276458	23001.07107528776	1061
4	102660003	23061.092597700794	1061
4	105043944	23121.115921901333	1061
4	107428718	23181.135211249339	1061
4	109813128	23241.154050899768	1061
4	112194101	23301.172797633445	1061
4	114580937	23361.197587427463	1061
4	116964650	23421.224507195431	1061
4	119353173	23481.248746536805	1061
4	121737310	23541.273964770492	1061
4	124121429	23601.296161323341	1061
5	2	20000	0
5	660603	20060	0
5	1420891	20120.0259996389	0
5	2262499	20180.049176026103	0
5	3180215	20240.067053432778	0
5	4204938	20300.092485792309	0
5	5307880	20360.111749775545	0
5	6523945	20420.132978421753	0
5	7809243	20480.156690777528	0
5	9173195	20540.182193636612	0
5	10604661	20600.201039905533	0
5	12137979	20660.224846209291	0
5	13728462	20720.246733675982	0
5	15364558	20780.271948041192	0
5	17065650	20840.298652401137	13
5	18837334	20900.317117278994	20
5	20680069	20960.335943227336	20
5	22642571	21020.360748007592	20
5	24684387	21080.386288591157	20
5	26799289	21140.409207991331	20
5	29007319	21200.432914269974	20
5	31289627	21260.456025954753	20
5	33600623	21320.475259560735	20
5	35936524	21380.493987055104	20
5	38304474	21440.512603213675	20
5	40681576	21500.529530481537	20
5	43062984	21560.550136912268	20
5	45444731	21620.573769721497	20
5	47826650	21680.593547212563	20
5	50210622	21740.618594023431	20
5	52594673	21800.640064438428	20
5	54978730	21860.657471340473	20
5	57362808	21920.682382012392	20
5	59747404	21980.706812925409	20
5	62130756	22040.731628001174	20
5	64515249	22100.751862538466	20
5	66898961	22160.77091213502	20
5	69283091	22220.793533804908	20
5	71667162	22280.812193337479	20
5	74051902	22340.834348402496	20
5	76436002	22400.857442027134	20
5	78819049	22460.879044094306	20
5	81203277	22520.904817125437	20
5	83588476	22580.922466562137	20
5	85971354	22640.946452068571	20
5	88355249	22700.966736357658	20
5	90739622	22760.987426151125	20
5	93124097	22821.008172043196	20
5	95507794	22881.028986501137	20
5	97892553	22941.05434372071	20
5	100276458	23001.07107528776	20
5	102660003	23061.092597700794	20
5	105043944	23121.115921901333	20
5	107428718	23181.135211249339	20
5	109813128	23241.154050899768	20
5	112194101	23301.172797633445	20
5	114580937	23361.197587427463	20
5	116964650	23421.224507195431	20
5	119353173	23481.248746536805	20
5	121737310	23541.273964770492	20
5	124121429	23601.296161323341	20
6	2	20000	400
6	660603	20060	999
6	1420891	20120.0259996389	1023
6	2262499	20180.049176026103	1034
6	3180215	20240.067053432778	1024
6	4204938	20300.092485792309	1031
6	5307880	20360.111749775545	1031
6	6523945	20420.132978421753	1064
6	7809243	20480.156690777528	1093
6	9173195	20540.182193636612	1083
6	10604661	20600.201039905533	1058
6	12137979	20660.224846209291	1044
6	13728462	20720.246733675982	1024
6	15364558	20780.271948041192	1028
6	17065650	20840.298652401137	1022
6	18837334	20900.317117278994	1029
6	20680069	20960.335943227336	1026
6	22642571	21020.360748007592	1028
6	24684387	21080.386288591157	1030
6	26799289	21140.409207991331	1036
6	29007319	21200.432914269974	1058
6	31289627	21260.456025954753	1066
6	33600623	21320.475259560735	1067
6	35936524	21380.493987055104	1071
6	38304474	21440.512603213675	1078
6	40681576	21500.529530481537	1079
6	43062984	21560.550136912268	1080
6	45444731	21620.573769721497	1081
6	47826650	21680.593547212563	1081
6	50210622	21740.618594023431	1081
6	52594673	21800.640064438428	1081
6	54978730	21860.657471340473	1081
6	57362808	21920.682382012392	1081
6	59747404	21980.706812925409	1081
6	62130756	22040.731628001174	1081
6	64515249	22100.751862538466	1081
6	66898961	22160.77091213502	1081
6	69283091	22220.793533804908	1081
6	71667162	22280.812193337479	1081
6	74051902	22340.834348402496	1081
6	76436002	22400.857442027134	1081
6	78819049	22460.879044094306	1081
6	81203277	22520.904817125437	1081
6	83588476	22580.922466562137	1081
6	85971354	22640.946452068571	1081
6	88355249	22700.966736357658	1081
6	90739622	22760.987426151125	1081
6	93124097	22821.008172043196	1081
6	95507794	22881.028986501137	1081
6	97892553	22941.05434372071	1081
6	100276458	23001.07107528776	1081
6	102660003	23061.092597700794	1081
6	105043944	23121.115921901333	1081
6	107428718	23181.135211249339	1081
6	109813128	23241.154050899768	1081
6	112194101	23301.172797633445	1081
6	114580937	23361.197587427463	1081
6	116964650	23421.224507195431	1081
6	119353173	23481.248746536805	1081
6	121737310	23541.273964770492	1081
6	124121429	23601.296161323341	1081
7	2	20000	5052
7	660603	20060	29
7	1420891	20120.0259996389	70
7	2262499	20180.049176026103	294
7	3180215	20240.067053432778	3213
7	4204938	20300.092485792309	6387
7	5307880	20360.111749775545	8354
7	6523945	20420.132978421753	14489
7	7809243	20480.156690777528	36243
7	9173195	20540.182193636612	38015
7	10604661	20600.201039905533	35955
7	12137979	20660.224846209291	36266
7	13728462	20720.246733675982	37195
7	15364558	20780.271948041192	36706
7	17065650	20840.298652401137	27762
7	18837334	20900.317117278994	27537
7	20680069	20960.335943227336	26966
7	22642571	21020.360748007592	24427
7	24684387	21080.386288591157	23702
7	26799289	21140.409207991331	23027
7	29007319	21200.432914269974	21943
7	31289627	21260.456025954753	20736
7	33600623	21320.475259560735	20804
7	35936524	21380.493987055104	20309
7	38304474	21440.512603213675	20603
7	40681576	21500.529530481537	19442
7	43062984	21560.550136912268	20280
7	45444731	21620.573769721497	20199
7	47826650	21680.593547212563	19610
7	50210622	21740.618594023431	19034
7	52594673	21800.640064438428	19856
7	54978730	21860.657471340473	20372
7	57362808	21920.682382012392	19856
7	59747404	21980.706812925409	19735
7	62130756	22040.731628001174	19087
7	64515249	22100.751862538466	19409
7	66898961	22160.77091213502	19499
7	69283091	22220.793533804908	20212
7	71667162	22280.812193337479	19470
7	74051902	22340.834348402496	20338
7	76436002	22400.857442027134	19121
7	78819049	22460.879044094306	19188
7	81203277	22520.904817125437	20249
7	83588476	22580.922466562137	19698
7	85971354	22640.946452068571	19198
7	88355249	22700.966736357658	19109
7	90739622	22760.987426151125	19961
7	93124097	22821.008172043196	19165
7	95507794	22881.028986501137	19055
7	97892553	22941.05434372071	19390
7	100276458	23001.07107528776	19750
7	102660003	23061.092597700794	19590
7	105043944	23121.115921901333	19466
7	107428718	23181.135211249339	19941
7	109813128	23241.154050899768	19568
7	112194101	23301.172797633445	18720
7	114580937	23361.197587427463	20196
7	116964650	23421.224507195431	20398
7	119353173	23481.248746536805	19568
7	121737310	23541.273964770492	19590
7	124121429	23601.296161323341	19615
8	2	20000	5052
8	660603	20060	49509
8	1420891	20120.0259996389	49325
8	2262499	20180.049176026103	49327
8	3180215	20240.067053432778	49286
8	4204938	20300.092485792309	49007
8	5307880	20360.111749775545	48854
8	6523945	20420.132978421753	48533
8	7809243	20480.156690777528	48346
8	9173195	20540.182193636612	48220
8	10604661	20600.201039905533	47904
8	12137979	20660.224846209291	47501
8	13728462	20720.246733675982	47374
8	15364558	20780.271948041192	46858
8	17065650	20840.298652401137	46601
8	18837334	20900.317117278994	46108
8	20680069	20960.335943227336	36655
8	22642571	21020.360748007592	44792
8	24684387	21080.386288591157	43317
8	26799289	21140.409207991331	34336
8	29007319	21200.432914269974	34270
8	31289627	21260.456025954753	42252
8	33600623	21320.475259560735	42048
8	35936524	21380.493987055104	41995
8	38304474	21440.512603213675	42160
8	40681576	21500.529530481537	42049
8	43062984	21560.550136912268	42193
8	45444731	21620.573769721497	42056
8	47826650	21680.593547212563	42088
8	50210622	21740.618594023431	42188
8	52594673	21800.640064438428	42177
8	54978730	21860.657471340473	42274
8	57362808	21920.682382012392	42128
8	59747404	21980.706812925409	42052
8	62130756	22040.731628001174	42150
8	64515249	22100.751862538466	42001
8	66898961	22160.77091213502	42087
8	69283091	22220.793533804908	41908
8	71667162	22280.812193337479	42134
8	74051902	22340.834348402496	42071
8	76436002	22400.857442027134	42044
8	78819049	22460.879044094306	42104
8	81203277	22520.904817125437	42104
8	83588476	22580.922466562137	41960
8	85971354	22640.946452068571	42165
8	88355249	22700.966736357658	42118
8	90739622	22760.987426151125	42079
8	93124097	22821.008172043196	41948
8	95507794	22881.028986501137	42212
8	97892553	22941.05434372071	42104
8	100276458	23001.07107528776	42201
8	102660003	23061.092597700794	42019
8	105043944	23121.115921901333	41921
8	107428718	23181.135211249339	41964
8	109813128	23241.154050899768	42116
8	112194101	23301.172797633445	41962
8	114580937	23361.197587427463	42138
8	116964650	23421.224507195431	42002
8	119353173	23481.248746536805	42058
8	121737310	23541.273964770492	42048
8	124121429	23601.296161323341	42034
9	2	20000	0
9	660603	20060	0
9	1420891	20120.0259996389	0
9	2262499	20180.049176026103	0
9	3180215	20240.067053432778	0
9	4204938	20300.092485792309	0
9	5307880	20360.111749775545	0
9	6523945	20420.132978421753	0
9	7809243	20480.156690777528	0
9	9173195	20540.182193636612	0
9	10604661	20600.201039905533	0
9	12137979	20660.224846209291	0
9	13728462	20720.246733675982	0
9	15364558	20780.271948041192	0
9	17065650	20840.298652401137	3
9	18837334	20900.317117278994	208
9	20680069	20960.335943227336	345
9	22642571	21020.360748007592	232
9	24684387	21080.386288591157	189
9	26799289	21140.409207991331	183
9	29007319	21200.432914269974	150
9	31289627	21260.456025954753	97
9	33600623	21320.475259560735	169
9	35936524	21380.493987055104	129
9	38304474	21440.512603213675	105
9	40681576	21500.529530481537	131
9	43062984	21560.550136912268	130
9	45444731	21620.573769721497	61
9	47826650	21680.593547212563	134
9	50210622	21740.618594023431	158
9	52594673	21800.640064438428	119
9	54978730	21860.657471340473	87
9	57362808	21920.682382012392	141
9	59747404	21980.706812925409	108
9	62130756	22040.731628001174	197
9	64515249	22100.751862538466	148
9	66898961	22160.77091213502	84
9	69283091	22220.793533804908	94
9	71667162	22280.812193337479	126
9	74051902	22340.834348402496	145
9	76436002	22400.857442027134	82
9	78819049	22460.879044094306	197
9	81203277	22520.904817125437	69
9	83588476	22580.922466562137	148
9	85971354	22640.946452068571	166
9	88355249	22700.966736357658	115
9	90739622	22760.987426151125	204
9	93124097	22821.008172043196	126
9	95507794	22881.028986501137	164
9	97892553	22941.05434372071	180
9	100276458	23001.07107528776	159
9	102660003	23061.092597700794	114
9	105043944	23121.115921901333	81
9	107428718	23181.135211249339	114
9	109813128	23241.154050899768	126
9	112194101	23301.172797633445	97
9	114580937	23361.197587427463	110
9	116964650	23421.224507195431	86
9	119353173	23481.248746536805	122
9	121737310	23541.273964770492	119
9	124121429	23601.296161323341	110
10	2	20000	0
10	660603	20060	49971
10	1420891	20120.0259996389	49930
10	2262499	20180.049176026103	49706
10	3180215	20240.067053432778	46787
10	4204938	20300.092485792309	43613
10	5307880	20360.111749775545	41646
10	6523945	20420.132978421753	35511
10	7809243	20480.156690777528	13757
10	9173195	20540.182193636612	11985
10	10604661	20600.201039905533	14045
10	12137979	20660.224846209291	13734
10	13728462	20720.246733675982	12805
10	15364558	20780.271948041192	13294
10	17065650	20840.298652401137	22228
10	18837334	20900.317117278994	22100
10	20680069	20960.335943227336	22858
10	22642571	21020.360748007592	25337
10	24684387	21080.386288591157	26056
10	26799289	21140.409207991331	26733
10	29007319	21200.432914269974	27832
10	31289627	21260.456025954753	28984
10	33600623	21320.475259560735	28973
10	35936524	21380.493987055104	29468
10	38304474	21440.512603213675	29145
10	40681576	21500.529530481537	30323
10	43062984	21560.550136912268	29480
10	45444731	21620.573769721497	29516
10	47826650	21680.593547212563	30167
10	50210622	21740.618594023431	30744
10	52594673	21800.640064438428	29893
10	54978730	21860.657471340473	29378
10	57362808	21920.682382012392	29907
10	59747404	21980.706812925409	30044
10	62130756	22040.731628001174	30722
10	64515249	22100.751862538466	30379
10	66898961	22160.77091213502	30242
10	69283091	22220.793533804908	29537
10	71667162	22280.812193337479	30293
10	74051902	22340.834348402496	29424
10	76436002	22400.857442027134	30604
10	78819049	22460.879044094306	30623
10	81203277	22520.904817125437	29486
10	83588476	22580.922466562137	30063
10	85971354	22640.946452068571	30587
10	88355249	22700.966736357658	30648
10	90739622	22760.987426151125	29876
10	93124097	22821.008172043196	30588
10	95507794	22881.028986501137	30755
10	97892553	22941.05434372071	30406
10	100276458	23001.07107528776	30050
10	102660003	23061.092597700794	30170
10	105043944	23121.115921901333	30253
10	107428718	23181.135211249339	29798
10	109813128	23241.154050899768	30197
10	112194101	23301.172797633445	31022
10	114580937	23361.197587427463	29568
10	116964650	23421.224507195431	29341
10	119353173	23481.248746536805	30187
10	121737310	23541.273964770492	30164
10	124121429	23601.296161323341	30140
11	2	20000	5052
11	660603	20060	107865
11	1420891	20120.0259996389	130882
11	2262499	20180.049176026103	146726
11	3180215	20240.067053432778	161344
11	4204938	20300.092485792309	182952
11	5307880	20360.111749775545	198139
11	6523945	20420.132978421753	218455
11	7809243	20480.156690777528	233752
11	9173195	20540.182193636612	249443
11	10604661	20600.201039905533	263449
11	12137979	20660.224846209291	284252
11	13728462	20720.246733675982	296647
11	15364558	20780.271948041192	305310
11	17065650	20840.298652401137	318713
11	18837334	20900.317117278994	338013
11	20680069	20960.335943227336	352604
11	22642571	21020.360748007592	376681
11	24684387	21080.386288591157	393022
11	26799289	21140.409207991331	406850
11	29007319	21200.432914269974	426019
11	31289627	21260.456025954753	440867
11	33600623	21320.475259560735	446902
11	35936524	21380.493987055104	451742
11	38304474	21440.512603213675	458316
11	40681576	21500.529530481537	460410
11	43062984	21560.550136912268	461135
11	45444731	21620.573769721497	461211
11	47826650	21680.593547212563	461281
11	50210622	21740.618594023431	461664
11	52594673	21800.640064438428	461664
11	54978730	21860.657471340473	461664
11	57362808	21920.682382012392	461664
11	59747404	21980.706812925409	461664
11	62130756	22040.731628001174	461664
11	64515249	22100.751862538466	461664
11	66898961	22160.77091213502	461664
11	69283091	22220.793533804908	461664
11	71667162	22280.812193337479	461664
11	74051902	22340.834348402496	461664
11	76436002	22400.857442027134	461664
11	78819049	22460.879044094306	461664
11	81203277	22520.904817125437	461664
11	83588476	22580.922466562137	461664
11	85971354	22640.946452068571	461664
11	88355249	22700.966736357658	461664
11	90739622	22760.987426151125	461664
11	93124097	22821.008172043196	461637
11	95507794	22881.028986501137	461664
11	97892553	22941.05434372071	461664
11	100276458	23001.07107528776	461664
11	102660003	23061.092597700794	461664
11	105043944	23121.115921901333	461664
11	107428718	23181.135211249339	461664
11	109813128	23241.154050899768	461664
11	112194101	23301.172797633445	461664
11	114580937	23361.197587427463	461664
11	116964650	23421.224507195431	461664
11	119353173	23481.248746536805	461664
11	121737310	23541.273964770492	461664
11	124121429	23601.296161323341	461664
12	2	20000	0
12	660603	20060	0
12	1420891	20120.0259996389	0
12	2262499	20180.049176026103	0
12	3180215	20240.067053432778	0
12	4204938	20300.092485792309	0
12	5307880	20360.111749775545	0
12	6523945	20420.132978421753	0
12	7809243	20480.156690777528	0
12	9173195	20540.182193636612	0
12	10604661	20600.201039905533	0
12	12137979	20660.224846209291	0
12	13728462	20720.246733675982	0
12	15364558	20780.271948041192	0
12	17065650	20840.298652401137	13
12	18837334	20900.317117278994	571
12	20680069	20960.335943227336	521
12	22642571	21020.360748007592	468
12	24684387	21080.386288591157	431
12	26799289	21140.409207991331	423
12	29007319	21200.432914269974	375
12	31289627	21260.456025954753	377
12	33600623	21320.475259560735	392
12	35936524	21380.493987055104	352
12	38304474	21440.512603213675	357
12	40681576	21500.529530481537	366
12	43062984	21560.550136912268	370
12	45444731	21620.573769721497	346
12	47826650	21680.593547212563	357
12	50210622	21740.618594023431	380
12	52594673	21800.640064438428	370
12	54978730	21860.657471340473	337
12	57362808	21920.682382012392	378
12	59747404	21980.706812925409	329
12	62130756	22040.731628001174	388
12	64515249	22100.751862538466	360
12	66898961	22160.77091213502	343
12	69283091	22220.793533804908	345
12	71667162	22280.812193337479	363
12	74051902	22340.834348402496	383
12	76436002	22400.857442027134	357
12	78819049	22460.879044094306	386
12	81203277	22520.904817125437	334
12	83588476	22580.922466562137	387
12	85971354	22640.946452068571	381
12	88355249	22700.966736357658	358
12	90739622	22760.987426151125	367
12	93124097	22821.008172043196	373
12	95507794	22881.028986501137	354
12	97892553	22941.05434372071	384
12	100276458	23001.07107528776	359
12	102660003	23061.092597700794	354
12	105043944	23121.115921901333	362
12	107428718	23181.135211249339	375
12	109813128	23241.154050899768	361
12	112194101	23301.172797633445	355
12	114580937	23361.197587427463	346
12	116964650	23421.224507195431	347
12	119353173	23481.248746536805	367
12	121737310	23541.273964770492	365
12	124121429	23601.296161323341	355

