version 2
run MoST-MaliciousCoordinated-0-20201006-19:10:22-26878
attr configname MoST-MaliciousCoordinated
attr datetime 20201006-19:10:22
attr experiment MoST-MaliciousCoordinated
attr inifile omnetpp.ini
attr iterationvars ""
attr iterationvarsf ""
attr measurement ""
attr network CoordinatedAttackScenario
attr processid 26878
attr repetition 0
attr replication #0
attr resultdir results
attr runnumber 0
attr seedset 0
param *.playgroundSizeX 10500m
param *.playgroundSizeY 7000m
param *.playgroundSizeZ 50m
param *.manager.launchConfig "xmldoc(\"most.launchd.xml\")"
param *.manager.connectAt 14400s
param *.manager.firstStepAt 20000s
param *.manager.updateInterval 250ms
param *.manager.moduleType "\"passenger1=org.car2x.veins.subprojects.simulator.nodes.Vehicle passenger2a=org.car2x.veins.subprojects.simulator.nodes.Vehicle passenger2b=org.car2x.veins.subprojects.simulator.nodes.Vehicle passenger3=org.car2x.veins.subprojects.simulator.nodes.Vehicle passenger4=org.car2x.veins.subprojects.simulator.nodes.Vehicle *=org.car2x.veins.subprojects.simulator.nodes.NonPartakingVehicle\""
param *.manager.moduleName "\"passenger1=node passenger2a=node passenger2b=node passenger3=node passenger4=node *=other\""
param *.manager.moduleDisplayString "\"passenger1='i=veins/node/car;is=vs' passenger2a='i=veins/node/car;is=vs' passenger2b='i=veins/node/car;is=vs' passenger3='i=veins/node/car;is=vs' passenger4='i=veins/node/car;is=vs' *='i=veins/node/bicycle;is=vs'\""
param *.manager.secondModuleType "\"passenger1=org.car2x.veins.subprojects.simulator.nodes.Vehicle passenger2a=org.car2x.veins.subprojects.simulator.nodes.Vehicle passenger2b=org.car2x.veins.subprojects.simulator.nodes.Vehicle passenger3=org.car2x.veins.subprojects.simulator.nodes.Vehicle passenger4=org.car2x.veins.subprojects.simulator.nodes.Vehicle *=org.car2x.veins.subprojects.simulator.nodes.NonPartakingVehicle\""
param *.rsuPlacer.rows 20
param *.rsuPlacer.cols 20
param *.rsuPlacer.rsuDisplayString "\"i=veins/node/cone;is=vs\""
param *.node2[*].app.blockchain.validatorModule "\"org.car2x.veins.subprojects.simulator.modules.validation.PlausibilityValidation\""
param *.node2[*].app.generatorModule "\"org.car2x.veins.subprojects.simulator.modules.transactions.TrafficJamGenerator\""
param *.node2[*].app.transactionGenerator.transactionsPerTurn 2
param *.**.app.blockchain.statusUpdateModule "\"org.car2x.veins.subprojects.simulator.modules.status.FixedReward\""
param *.**.app.blockchain.statusUpdater.reward 256
param *.**.app.blockchain.statusUpdater.penalty 512
param *.**.app.blockchain.statusUpdater.startingReward 64
param *.**.app.transactionGenerator.maxOffset 40m
param *.**.app.transactionGenerator.minOffset 30m
param *.manager.vehicleCap 1500
param *.manager.ratio 0
param *.**.app.transactionGenerator.range 15m
param *.**.wave.range 15m
param *.logger.logFile "\"results/MoST-MaliciousCoordinated--0.blockchain.log\""
param *.addressTable.logFile "\"results/MoST-MaliciousCoordinated--0.addresses.log\""
param *.node[988].app.generatorModule "\"org.car2x.veins.subprojects.simulator.modules.transactions.AttackInitiator\""
param *.node[988].app.transactionGenerator.startAt 20840s
param *.node[988].app.transactionGenerator.stopAt 21020s
param *.maliciousNodes 5
param *.nodePlacer.x 500
param *.nodePlacer.y 500
param *.node[*].app.blockchain.blockValidator.decayRate 0.3
param *.**.app.transactionPeriod 5s
param *.manager.secondModuleType "\"org.car2x.veins.subprojects.simulator.nodes.Vehicle\""
param *.manager.ratio 0.1
param *.rsuPlacer.rows 16
param *.rsuPlacer.cols 16
param *.rsuPlacer.rsuDisplayString "\"i=veins/node/cone;is=vs\""
param *.**.app.blockchain.statusUpdater.rsuStartingReward 2048
param *.**.app.blockchain.statusUpdater.startingReward 1024
param *.**.app.blockchain.statusUpdater.reward 512
param *.**.app.blockchain.statusUpdater.penalty 2048
param *.**.app.blockchain.statusUpdater.maxReward 4096
param *.**.app.blockchain.consensusModule "\"org.car2x.veins.subprojects.simulator.modules.consensus.BaseVotingModel\""
param *.**.app.blockchain.filterModule "\"org.car2x.veins.subprojects.simulator.modules.blocks.SimpleFilter\""
param *.**.app.blockchain.harvesterModule "\"org.car2x.veins.subprojects.simulator.modules.harvesting.DeterministicHarvester\""
param *.**.app.blockchain.statusUpdateModule "\"org.car2x.veins.subprojects.simulator.modules.status.FixedReward\""
param *.**.app.blockchain.consensusModel.harvesters 3
param *.**.app.blockchain.consensusModel.faultTolerance 5
param *.**.app.blockchain.consensusModel.timeout 3s
param *.**.app.transactionPeriod 1s
param *.**.app.transactionGenerator.range 40m
param *.**.app.applicationModule "\"org.car2x.veins.subprojects.simulator.modules.application.TestApplication\""
param *.node[*].app.blockchain.validatorModule "\"org.car2x.veins.subprojects.simulator.modules.validation.PlausibilityValidation\""
param *.node[*].app.generatorModule "\"org.car2x.veins.subprojects.simulator.modules.transactions.ValidTransactionGenerator\""
param *.node2[*].app.blockchain.validatorModule "\"org.car2x.veins.subprojects.simulator.modules.validation.SelfishValidator\""
param *.node2[*].app.generatorModule "\"org.car2x.veins.subprojects.simulator.modules.transactions.MimicTransactionGenerator\""
param *.node[*].veinsmobility.x 0
param *.node[*].veinsmobility.y 0
param *.node[*].veinsmobility.z 0
param *.node[*].veinsmobility.setHostSpeed false
param *.node[*].veinsmobility.accidentCount 0
param *.node[*].veinsmobility.accidentStart 0s
param *.node[*].veinsmobility.accidentDuration 0s
param *.node2[*].veinsmobility.x 0
param *.node2[*].veinsmobility.y 0
param *.node2[*].veinsmobility.z 0
param *.node2[*].veinsmobility.setHostSpeed false
param *.node2[*].veinsmobility.accidentCount 0
param *.node2[*].veinsmobility.accidentStart 0s
param *.node2[*].veinsmobility.accidentDuration 0s
param *.RSU[*].app.blockchain.validatorModule "\"org.car2x.veins.subprojects.simulator.modules.validation.PlausibilityValidation\""
param *.RSU[*].app.generatorModule "\"org.car2x.veins.subprojects.simulator.modules.transactions.ValidTransactionGenerator\""
param *.RSU[*].app.blockchain.blockchain.downloadAtStart false
param *.playgroundSizeX 2500m
param *.playgroundSizeY 2500m
param *.playgroundSizeZ 50m
param *.annotations.draw true
param *.obstacles.obstacles "xmldoc(\"config.xml\", \"//AnalogueModel[@type='SimpleObstacleShadowing']/obstacles\")"
param *.manager.updateInterval 1s
param *.manager.host "\"localhost\""
param *.manager.port 9999
param *.manager.autoShutdown true
param *.manager.launchConfig "xmldoc(\"erlangen.launchd.xml\")"
param *.manager.moduleType "\"org.car2x.veins.subprojects.simulator.nodes.Vehicle\""
param *.manager.secondModuleType "\"org.car2x.veins.subprojects.simulator.nodes.Vehicle\""
param *.manager.ratio 0.0
param *.connectionManager.sendDirect true
param *.connectionManager.maxInterfDist 2600m
param *.connectionManager.drawMaxIntfDist false
param *.**.wave.range 40m
param *.**.wave.speed 6Gbps
param *.**.inet.speed 10Gbps
param *.**.app.blockchain.blocksize 50000
param *.**.app.blockchain.blocktime 60s
param *.**.app.blockchain.blockValidator.maxSpeed 130kmph
param *.logger.logFile "\"results/MoST-MaliciousCoordinated-0.blockchain.log\""
param *.addressTable.logFile "\"results/MoST-MaliciousCoordinated-0.addresses.log\""
param *.RSU[*].app.blockchain.blockchain.downloadAtStart false
param *.**.app.blockchain.consensusModule "\"org.car2x.veins.subprojects.simulator.modules.consensus.TrustedEnvironment\""
param *.**.app.blockchain.filterModule "\"org.car2x.veins.subprojects.simulator.modules.blocks.SimpleFilter\""
param *.**.app.blockchain.harvesterModule "\"org.car2x.veins.subprojects.simulator.modules.harvesting.DeterministicHarvester\""
param *.**.app.blockchain.statusUpdateModule "\"org.car2x.veins.subprojects.simulator.modules.status.FixedReward\""
param *.**.app.blockchain.validatorModule "\"org.car2x.veins.subprojects.simulator.modules.validation.PlausibilityValidation\""
param *.**.app.generatorModule "\"org.car2x.veins.subprojects.simulator.modules.transactions.ValidTransactionGenerator\""
param *.**.app.applicationModule "\"org.car2x.veins.subprojects.simulator.modules.application.TestApplication\""
param *.**.app.transactionPeriod 1s
param *.**.app.transactionGenerator.range 40m
param *.**.app.blockchain.consensusModel.faultTolerance 3
param *.**.app.blockchain.consensusModel.timeout 2s
param *.node[*].veinsmobility.x 0
param *.node[*].veinsmobility.y 0
param *.node[*].veinsmobility.z 0
param *.node[*].veinsmobility.setHostSpeed false
param *.node[*].veinsmobility.accidentCount 0
param *.node[*].veinsmobility.accidentStart 0s
param *.node[*].veinsmobility.accidentDuration 0s

vector 0 CoordinatedAttackScenario.logger TotalReputationAverage ETV
vector 1 CoordinatedAttackScenario.logger ActiveType1ReputationAverage ETV
vector 2 CoordinatedAttackScenario.logger ActiveType2ReputationAverage ETV
vector 3 CoordinatedAttackScenario.logger NumberOfNodes ETV
vector 4 CoordinatedAttackScenario.logger NumberOfActiveType1Nodes ETV
vector 5 CoordinatedAttackScenario.logger NumberOfActiveType2Nodes ETV
vector 6 CoordinatedAttackScenario.logger NumberOfActiveNodes ETV
vector 7 CoordinatedAttackScenario.logger NumberOfAcceptableTransactions ETV
vector 8 CoordinatedAttackScenario.logger NumberOfPlausibleTransactions ETV
vector 9 CoordinatedAttackScenario.logger NumberOfAcceptedType2Transactions ETV
vector 10 CoordinatedAttackScenario.logger NumberOfUnacceptedType1Transactions ETV
vector 11 CoordinatedAttackScenario.logger TotalTransactions ETV
vector 12 CoordinatedAttackScenario.logger Type2Transactions ETV
0	2	20000	2048
0	656263	20060	44.473058082575
0	1409626	20120.021124763105	40.652005174644
0	3152275	20240.046893615015	67.770461538462
0	4161996	20300.068681719165	219.84007134364
0	5251403	20360.09062118541	302.5422171166
0	6446170	20420.109957598708	676.46286990508
0	7720707	20480.137708537738	928.17422173676
0	9071743	20540.156564320028	1076.3169280692
0	10494980	20600.177710390723	1052.2003222342
0	12016461	20660.197063184611	1119.7235294118
0	13600267	20720.217654606173	1143.8055555556
0	15224615	20780.242138475732	1161.1227321238
0	16917066	20840.26271991332	1098.7546468401
0	18677602	20900.288097853545	1134.4474522293
0	20510356	20960.31434856923	1156.5212314225
0	22461094	21020.333611435185	1088.4883227176
0	24496157	21080.356107187194	1081.3618037135
0	26598251	21140.379824615418	1139.119300106
0	28794492	21200.397870761788	1035.4750795334
0	31066280	21260.420479605448	1038.551961824
0	33367632	21320.442825450678	990.35896076352
0	35691900	21380.462668027622	1003.2895015907
0	38049446	21440.488817102453	961.17073170732
0	40417820	21500.506717403096	953.47613997879
0	42789997	21560.528871447221	952.30805938494
0	45160439	21620.549972877336	964.12672322375
0	47532929	21680.567038624806	932.95758218452
0	49906089	21740.591838019077	922.1230116649
0	52279744	21800.616910722984	936.68928950159
0	54653582	21860.639571587322	920.78525980912
0	57028388	21920.656290414847	966.84676564157
0	59401835	21980.68210910376	977.42576882291
0	61776248	22040.699925276449	945.51060445387
0	64149825	22100.719262608866	971.96871686108
0	66522773	22160.736510526921	980.40827147402
0	68896674	22220.756682983303	934.24390243902
0	71271753	22280.780960463429	916.24337221633
0	73644083	22340.800593932556	975.78897136797
0	76018656	22400.826791253647	952.20678685048
0	78392436	22460.844544541003	997.25715800636
0	80765565	22520.86348215591	976.43054082715
0	83140450	22580.889718670753	923.61346765642
0	85513831	22640.907128424162	978.19194061506
0	87887129	22700.929616749249	930.67285259809
0	90260976	22760.950383518541	970.99840933192
0	92635405	22820.970470229117	965.08695652174
0	95009501	22880.988366061028	954.55143160127
0	97383973	22941.009317514892	944.56150583245
0	99759815	23001.028123675906	984.74920466596
0	102131538	23061.049001800777	1009.3388123012
0	104505464	23121.075003173606	990.0980911983
0	106879235	23181.095626618133	1003.2873806999
0	109252365	23241.123630337912	967.23488865323
0	111626036	23301.141296066758	979.934252386
0	113999898	23361.168963468214	979.58059384942
0	116374535	23421.193395148328	978.87963944857
0	118747450	23481.213090034417	966.04772004242
0	121122811	23541.230831822815	949.90349946978
0	123500069	23601.253467474644	929.19724284199
1	2	20000	2048
1	656263	20060	63.615615615616
1	1409626	20120.021124763105	61.434995112414
1	3152275	20240.046893615015	108.07360157017
1	4161996	20300.068681719165	363.23280943026
1	5251403	20360.09062118541	503.0811843362
1	6446170	20420.109957598708	1142.9669811321
1	7720707	20480.137708537738	1576.5185528757
1	9071743	20540.156564320028	1835.8948339483
1	10494980	20600.177710390723	1848.2990566038
1	12016461	20660.197063184611	2007.5580057526
1	13600267	20720.217654606173	2074.8100775194
1	15224615	20780.242138475732	2120.8031189084
1	16917066	20840.26271991332	2046.1275964392
1	18677602	20900.288097853545	2094.3310412574
1	20510356	20960.31434856923	2154.306547619
1	22461094	21020.333611435185	2026.9533730159
1	24496157	21080.356107187194	2012.4380574827
1	26598251	21140.379824615418	2106.7586206897
1	28794492	21200.397870761788	1882.9012584705
1	31066280	21260.420479605448	1866.9473684211
1	33367632	21320.442825450678	1781.6513409962
1	35691900	21380.462668027622	1796.9771428571
1	38049446	21440.488817102453	1711.4087038789
1	40417820	21500.506717403096	1696.7419659735
1	42789997	21560.528871447221	1693.9839471199
1	45160439	21620.549972877336	1714.4396226415
1	47532929	21680.567038624806	1657.229245283
1	49906089	21740.591838019077	1640.0481132075
1	52279744	21800.616910722984	1665.1867924528
1	54653582	21860.639571587322	1637.8198113208
1	57028388	21920.656290414847	1716.7198113208
1	59401835	21980.68210910376	1736.4320754717
1	61776248	22040.699925276449	1678.2311320755
1	64149825	22100.719262608866	1727.0811320755
1	66522773	22160.736510526921	1741.4009433962
1	68896674	22220.756682983303	1660.1235849057
1	71271753	22280.780960463429	1627.6047169811
1	73644083	22340.800593932556	1733.041509434
1	76018656	22400.826791253647	1689.5801886792
1	78392436	22460.844544541003	1769.5245283019
1	80765565	22520.86348215591	1734.0830188679
1	83140450	22580.889718670753	1639.8669811321
1	85513831	22640.907128424162	1736.9745283019
1	87887129	22700.929616749249	1653.8764150943
1	90260976	22760.950383518541	1724.9783018868
1	92635405	22820.970470229117	1716.329245283
1	95009501	22880.988366061028	1697.1735849057
1	97383973	22941.009317514892	1680.3679245283
1	99759815	23001.028123675906	1750.558490566
1	102131538	23061.049001800777	1794.5839622642
1	104505464	23121.075003173606	1761.4669811321
1	106879235	23181.095626618133	1785.0150943396
1	109252365	23241.123630337912	1720.8688679245
1	111626036	23301.141296066758	1743.5433962264
1	113999898	23361.168963468214	1742.9141509434
1	116374535	23421.193395148328	1741.6669811321
1	118747450	23481.213090034417	1718.8358490566
1	121122811	23541.230831822815	1690.1113207547
1	123500069	23601.253467474644	1653.2698113208
2	2	20000	0
2	656263	20060	0
2	1409626	20120.021124763105	0
2	3152275	20240.046893615015	0
2	4161996	20300.068681719165	0
2	5251403	20360.09062118541	0
2	6446170	20420.109957598708	0
2	7720707	20480.137708537738	0
2	9071743	20540.156564320028	0
2	10494980	20600.177710390723	0
2	12016461	20660.197063184611	0
2	13600267	20720.217654606173	0
2	15224615	20780.242138475732	0
2	16917066	20840.26271991332	80
2	18677602	20900.288097853545	1054
2	20510356	20960.31434856923	1469
2	22461094	21020.333611435185	1508.6
2	24496157	21080.356107187194	1563.4
2	26598251	21140.379824615418	2003.8
2	28794492	21200.397870761788	1573.8
2	31066280	21260.420479605448	1549.8
2	33367632	21320.442825450678	1554.6
2	35691900	21380.462668027622	1075.6
2	38049446	21440.488817102453	761.8
2	40417820	21500.506717403096	620.6
2	42789997	21560.528871447221	424.8
2	45160439	21620.549972877336	207.4
2	47532929	21680.567038624806	579
2	49906089	21740.591838019077	134.6
2	52279744	21800.616910722984	299.6
2	54653582	21860.639571587322	102.4
2	57028388	21920.656290414847	750
2	59401835	21980.68210910376	561.4
2	61776248	22040.699925276449	861.6
2	64149825	22100.719262608866	485.4
2	66522773	22160.736510526921	633
2	68896674	22220.756682983303	450.6
2	71271753	22280.780960463429	554.8
2	73644083	22340.800593932556	662.8
2	76018656	22400.826791253647	981.4
2	78392436	22460.844544541003	1026.2
2	80765565	22520.86348215591	684
2	83140450	22580.889718670753	735.2
2	85513831	22640.907128424162	735.4
2	87887129	22700.929616749249	428
2	90260976	22760.950383518541	565.2
2	92635405	22820.970470229117	169
2	95009501	22880.988366061028	256
2	97383973	22941.009317514892	50.6
2	99759815	23001.028123675906	329
2	102131538	23061.049001800777	270.8
2	104505464	23121.075003173606	42.5
2	106879235	23181.095626618133	16.8
2	109252365	23241.123630337912	16.8
2	111626036	23301.141296066758	0
2	113999898	23361.168963468214	0
2	116374535	23421.193395148328	0
2	118747450	23481.213090034417	0
2	121122811	23541.230831822815	0
2	123500069	23601.253467474644	0
3	2	20000	400
3	656263	20060	1429
3	1409626	20120.021124763105	1546
3	3152275	20240.046893615015	1625
3	4161996	20300.068681719165	1682
3	5251403	20360.09062118541	1741
3	6446170	20420.109957598708	1791
3	7720707	20480.137708537738	1831
3	9071743	20540.156564320028	1849
3	10494980	20600.177710390723	1862
3	12016461	20660.197063184611	1870
3	13600267	20720.217654606173	1872
3	15224615	20780.242138475732	1874
3	16917066	20840.26271991332	1883
3	18677602	20900.288097853545	1884
3	20510356	20960.31434856923	1884
3	22461094	21020.333611435185	1884
3	24496157	21080.356107187194	1885
3	26598251	21140.379824615418	1886
3	28794492	21200.397870761788	1886
3	31066280	21260.420479605448	1886
3	33367632	21320.442825450678	1886
3	35691900	21380.462668027622	1886
3	38049446	21440.488817102453	1886
3	40417820	21500.506717403096	1886
3	42789997	21560.528871447221	1886
3	45160439	21620.549972877336	1886
3	47532929	21680.567038624806	1886
3	49906089	21740.591838019077	1886
3	52279744	21800.616910722984	1886
3	54653582	21860.639571587322	1886
3	57028388	21920.656290414847	1886
3	59401835	21980.68210910376	1886
3	61776248	22040.699925276449	1886
3	64149825	22100.719262608866	1886
3	66522773	22160.736510526921	1886
3	68896674	22220.756682983303	1886
3	71271753	22280.780960463429	1886
3	73644083	22340.800593932556	1886
3	76018656	22400.826791253647	1886
3	78392436	22460.844544541003	1886
3	80765565	22520.86348215591	1886
3	83140450	22580.889718670753	1886
3	85513831	22640.907128424162	1886
3	87887129	22700.929616749249	1886
3	90260976	22760.950383518541	1886
3	92635405	22820.970470229117	1886
3	95009501	22880.988366061028	1886
3	97383973	22941.009317514892	1886
3	99759815	23001.028123675906	1886
3	102131538	23061.049001800777	1886
3	104505464	23121.075003173606	1886
3	106879235	23181.095626618133	1886
3	109252365	23241.123630337912	1886
3	111626036	23301.141296066758	1886
3	113999898	23361.168963468214	1886
3	116374535	23421.193395148328	1886
3	118747450	23481.213090034417	1886
3	121122811	23541.230831822815	1886
3	123500069	23601.253467474644	1886
4	2	20000	400
4	656263	20060	999
4	1409626	20120.021124763105	1023
4	3152275	20240.046893615015	1019
4	4161996	20300.068681719165	1018
4	5251403	20360.09062118541	1047
4	6446170	20420.109957598708	1060
4	7720707	20480.137708537738	1078
4	9071743	20540.156564320028	1084
4	10494980	20600.177710390723	1060
4	12016461	20660.197063184611	1043
4	13600267	20720.217654606173	1032
4	15224615	20780.242138475732	1026
4	16917066	20840.26271991332	1011
4	18677602	20900.288097853545	1018
4	20510356	20960.31434856923	1008
4	22461094	21020.333611435185	1008
4	24496157	21080.356107187194	1009
4	26598251	21140.379824615418	1015
4	28794492	21200.397870761788	1033
4	31066280	21260.420479605448	1045
4	33367632	21320.442825450678	1044
4	35691900	21380.462668027622	1050
4	38049446	21440.488817102453	1057
4	40417820	21500.506717403096	1058
4	42789997	21560.528871447221	1059
4	45160439	21620.549972877336	1060
4	47532929	21680.567038624806	1060
4	49906089	21740.591838019077	1060
4	52279744	21800.616910722984	1060
4	54653582	21860.639571587322	1060
4	57028388	21920.656290414847	1060
4	59401835	21980.68210910376	1060
4	61776248	22040.699925276449	1060
4	64149825	22100.719262608866	1060
4	66522773	22160.736510526921	1060
4	68896674	22220.756682983303	1060
4	71271753	22280.780960463429	1060
4	73644083	22340.800593932556	1060
4	76018656	22400.826791253647	1060
4	78392436	22460.844544541003	1060
4	80765565	22520.86348215591	1060
4	83140450	22580.889718670753	1060
4	85513831	22640.907128424162	1060
4	87887129	22700.929616749249	1060
4	90260976	22760.950383518541	1060
4	92635405	22820.970470229117	1060
4	95009501	22880.988366061028	1060
4	97383973	22941.009317514892	1060
4	99759815	23001.028123675906	1060
4	102131538	23061.049001800777	1060
4	104505464	23121.075003173606	1060
4	106879235	23181.095626618133	1060
4	109252365	23241.123630337912	1060
4	111626036	23301.141296066758	1060
4	113999898	23361.168963468214	1060
4	116374535	23421.193395148328	1060
4	118747450	23481.213090034417	1060
4	121122811	23541.230831822815	1060
4	123500069	23601.253467474644	1060
5	2	20000	0
5	656263	20060	0
5	1409626	20120.021124763105	0
5	3152275	20240.046893615015	0
5	4161996	20300.068681719165	0
5	5251403	20360.09062118541	0
5	6446170	20420.109957598708	0
5	7720707	20480.137708537738	0
5	9071743	20540.156564320028	0
5	10494980	20600.177710390723	0
5	12016461	20660.197063184611	0
5	13600267	20720.217654606173	0
5	15224615	20780.242138475732	0
5	16917066	20840.26271991332	4
5	18677602	20900.288097853545	5
5	20510356	20960.31434856923	5
5	22461094	21020.333611435185	5
5	24496157	21080.356107187194	5
5	26598251	21140.379824615418	5
5	28794492	21200.397870761788	5
5	31066280	21260.420479605448	5
5	33367632	21320.442825450678	5
5	35691900	21380.462668027622	5
5	38049446	21440.488817102453	5
5	40417820	21500.506717403096	5
5	42789997	21560.528871447221	5
5	45160439	21620.549972877336	5
5	47532929	21680.567038624806	5
5	49906089	21740.591838019077	5
5	52279744	21800.616910722984	5
5	54653582	21860.639571587322	5
5	57028388	21920.656290414847	5
5	59401835	21980.68210910376	5
5	61776248	22040.699925276449	5
5	64149825	22100.719262608866	5
5	66522773	22160.736510526921	5
5	68896674	22220.756682983303	5
5	71271753	22280.780960463429	5
5	73644083	22340.800593932556	5
5	76018656	22400.826791253647	5
5	78392436	22460.844544541003	5
5	80765565	22520.86348215591	5
5	83140450	22580.889718670753	5
5	85513831	22640.907128424162	5
5	87887129	22700.929616749249	5
5	90260976	22760.950383518541	5
5	92635405	22820.970470229117	5
5	95009501	22880.988366061028	5
5	97383973	22941.009317514892	5
5	99759815	23001.028123675906	5
5	102131538	23061.049001800777	5
5	104505464	23121.075003173606	4
5	106879235	23181.095626618133	5
5	109252365	23241.123630337912	5
5	111626036	23301.141296066758	5
5	113999898	23361.168963468214	5
5	116374535	23421.193395148328	5
5	118747450	23481.213090034417	5
5	121122811	23541.230831822815	5
5	123500069	23601.253467474644	5
6	2	20000	400
6	656263	20060	999
6	1409626	20120.021124763105	1023
6	3152275	20240.046893615015	1019
6	4161996	20300.068681719165	1018
6	5251403	20360.09062118541	1047
6	6446170	20420.109957598708	1060
6	7720707	20480.137708537738	1078
6	9071743	20540.156564320028	1084
6	10494980	20600.177710390723	1060
6	12016461	20660.197063184611	1043
6	13600267	20720.217654606173	1032
6	15224615	20780.242138475732	1026
6	16917066	20840.26271991332	1015
6	18677602	20900.288097853545	1023
6	20510356	20960.31434856923	1013
6	22461094	21020.333611435185	1013
6	24496157	21080.356107187194	1014
6	26598251	21140.379824615418	1020
6	28794492	21200.397870761788	1038
6	31066280	21260.420479605448	1050
6	33367632	21320.442825450678	1049
6	35691900	21380.462668027622	1055
6	38049446	21440.488817102453	1062
6	40417820	21500.506717403096	1063
6	42789997	21560.528871447221	1064
6	45160439	21620.549972877336	1065
6	47532929	21680.567038624806	1065
6	49906089	21740.591838019077	1065
6	52279744	21800.616910722984	1065
6	54653582	21860.639571587322	1065
6	57028388	21920.656290414847	1065
6	59401835	21980.68210910376	1065
6	61776248	22040.699925276449	1065
6	64149825	22100.719262608866	1065
6	66522773	22160.736510526921	1065
6	68896674	22220.756682983303	1065
6	71271753	22280.780960463429	1065
6	73644083	22340.800593932556	1065
6	76018656	22400.826791253647	1065
6	78392436	22460.844544541003	1065
6	80765565	22520.86348215591	1065
6	83140450	22580.889718670753	1065
6	85513831	22640.907128424162	1065
6	87887129	22700.929616749249	1065
6	90260976	22760.950383518541	1065
6	92635405	22820.970470229117	1065
6	95009501	22880.988366061028	1065
6	97383973	22941.009317514892	1065
6	99759815	23001.028123675906	1065
6	102131538	23061.049001800777	1065
6	104505464	23121.075003173606	1064
6	106879235	23181.095626618133	1065
6	109252365	23241.123630337912	1065
6	111626036	23301.141296066758	1065
6	113999898	23361.168963468214	1065
6	116374535	23421.193395148328	1065
6	118747450	23481.213090034417	1065
6	121122811	23541.230831822815	1065
6	123500069	23601.253467474644	1065
7	2	20000	5052
7	656263	20060	24
7	1409626	20120.021124763105	99
7	3152275	20240.046893615015	542
7	4161996	20300.068681719165	5180
7	5251403	20360.09062118541	6504
7	6446170	20420.109957598708	21571
7	7720707	20480.137708537738	29605
7	9071743	20540.156564320028	34340
7	10494980	20600.177710390723	33062
7	12016461	20660.197063184611	34475
7	13600267	20720.217654606173	33434
7	15224615	20780.242138475732	31739
7	16917066	20840.26271991332	24747
7	18677602	20900.288097853545	24658
7	20510356	20960.31434856923	24370
7	22461094	21020.333611435185	21370
7	24496157	21080.356107187194	21098
7	26598251	21140.379824615418	21667
7	28794492	21200.397870761788	19649
7	31066280	21260.420479605448	19721
7	33367632	21320.442825450678	18388
7	35691900	21380.462668027622	18548
7	38049446	21440.488817102453	18151
7	40417820	21500.506717403096	18264
7	42789997	21560.528871447221	18726
7	45160439	21620.549972877336	18717
7	47532929	21680.567038624806	17801
7	49906089	21740.591838019077	17409
7	52279744	21800.616910722984	18450
7	54653582	21860.639571587322	17007
7	57028388	21920.656290414847	18728
7	59401835	21980.68210910376	18441
7	61776248	22040.699925276449	18345
7	64149825	22100.719262608866	18693
7	66522773	22160.736510526921	18839
7	68896674	22220.756682983303	17658
7	71271753	22280.780960463429	17521
7	73644083	22340.800593932556	18262
7	76018656	22400.826791253647	18100
7	78392436	22460.844544541003	19004
7	80765565	22520.86348215591	18618
7	83140450	22580.889718670753	17610
7	85513831	22640.907128424162	18700
7	87887129	22700.929616749249	17792
7	90260976	22760.950383518541	18522
7	92635405	22820.970470229117	18502
7	95009501	22880.988366061028	18261
7	97383973	22941.009317514892	17673
7	99759815	23001.028123675906	18405
7	102131538	23061.049001800777	19016
7	104505464	23121.075003173606	18529
7	106879235	23181.095626618133	18720
7	109252365	23241.123630337912	18099
7	111626036	23301.141296066758	18104
7	113999898	23361.168963468214	18055
7	116374535	23421.193395148328	18613
7	118747450	23481.213090034417	18453
7	121122811	23541.230831822815	18075
7	123500069	23601.253467474644	17639
8	2	20000	5052
8	656263	20060	49516
8	1409626	20120.021124763105	49331
8	3152275	20240.046893615015	49243
8	4161996	20300.068681719165	49032
8	5251403	20360.09062118541	48742
8	6446170	20420.109957598708	48472
8	7720707	20480.137708537738	48494
8	9071743	20540.156564320028	48235
8	10494980	20600.177710390723	47498
8	12016461	20660.197063184611	47102
8	13600267	20720.217654606173	46652
8	15224615	20780.242138475732	46903
8	16917066	20840.26271991332	46468
8	18677602	20900.288097853545	46147
8	20510356	20960.31434856923	45318
8	22461094	21020.333611435185	44888
8	24496157	21080.356107187194	44249
8	26598251	21140.379824615418	33984
8	28794492	21200.397870761788	33569
8	31066280	21260.420479605448	42598
8	33367632	21320.442825450678	42371
8	35691900	21380.462668027622	42178
8	38049446	21440.488817102453	42014
8	40417820	21500.506717403096	42060
8	42789997	21560.528871447221	41888
8	45160439	21620.549972877336	42335
8	47532929	21680.567038624806	42268
8	49906089	21740.591838019077	42229
8	52279744	21800.616910722984	42056
8	54653582	21860.639571587322	42383
8	57028388	21920.656290414847	42204
8	59401835	21980.68210910376	42201
8	61776248	22040.699925276449	42161
8	64149825	22100.719262608866	42294
8	66522773	22160.736510526921	42234
8	68896674	22220.756682983303	42340
8	71271753	22280.780960463429	42286
8	73644083	22340.800593932556	42372
8	76018656	22400.826791253647	42079
8	78392436	22460.844544541003	42148
8	80765565	22520.86348215591	42343
8	83140450	22580.889718670753	42235
8	85513831	22640.907128424162	42274
8	87887129	22700.929616749249	42275
8	90260976	22760.950383518541	42328
8	92635405	22820.970470229117	42151
8	95009501	22880.988366061028	42200
8	97383973	22941.009317514892	42126
8	99759815	23001.028123675906	42353
8	102131538	23061.049001800777	42292
8	104505464	23121.075003173606	42168
8	106879235	23181.095626618133	42342
8	109252365	23241.123630337912	42203
8	111626036	23301.141296066758	42235
8	113999898	23361.168963468214	42230
8	116374535	23421.193395148328	42246
8	118747450	23481.213090034417	42142
8	121122811	23541.230831822815	42270
8	123500069	23601.253467474644	42164
9	2	20000	0
9	656263	20060	0
9	1409626	20120.021124763105	0
9	3152275	20240.046893615015	0
9	4161996	20300.068681719165	0
9	5251403	20360.09062118541	0
9	6446170	20420.109957598708	0
9	7720707	20480.137708537738	0
9	9071743	20540.156564320028	0
9	10494980	20600.177710390723	0
9	12016461	20660.197063184611	0
9	13600267	20720.217654606173	0
9	15224615	20780.242138475732	0
9	16917066	20840.26271991332	3
9	18677602	20900.288097853545	31
9	20510356	20960.31434856923	25
9	22461094	21020.333611435185	23
9	24496157	21080.356107187194	16
9	26598251	21140.379824615418	26
9	28794492	21200.397870761788	12
9	31066280	21260.420479605448	17
9	33367632	21320.442825450678	14
9	35691900	21380.462668027622	12
9	38049446	21440.488817102453	14
9	40417820	21500.506717403096	15
9	42789997	21560.528871447221	11
9	45160439	21620.549972877336	13
9	47532929	21680.567038624806	17
9	49906089	21740.591838019077	6
9	52279744	21800.616910722984	11
9	54653582	21860.639571587322	7
9	57028388	21920.656290414847	19
9	59401835	21980.68210910376	13
9	61776248	22040.699925276449	15
9	64149825	22100.719262608866	9
9	66522773	22160.736510526921	15
9	68896674	22220.756682983303	13
9	71271753	22280.780960463429	14
9	73644083	22340.800593932556	14
9	76018656	22400.826791253647	19
9	78392436	22460.844544541003	13
9	80765565	22520.86348215591	5
9	83140450	22580.889718670753	10
9	85513831	22640.907128424162	12
9	87887129	22700.929616749249	6
9	90260976	22760.950383518541	15
9	92635405	22820.970470229117	12
9	95009501	22880.988366061028	14
9	97383973	22941.009317514892	7
9	99759815	23001.028123675906	13
9	102131538	23061.049001800777	11
9	104505464	23121.075003173606	9
9	106879235	23181.095626618133	9
9	109252365	23241.123630337912	4
9	111626036	23301.141296066758	2
9	113999898	23361.168963468214	0
9	116374535	23421.193395148328	0
9	118747450	23481.213090034417	0
9	121122811	23541.230831822815	0
9	123500069	23601.253467474644	0
10	2	20000	0
10	656263	20060	49976
10	1409626	20120.021124763105	49901
10	3152275	20240.046893615015	49458
10	4161996	20300.068681719165	44820
10	5251403	20360.09062118541	43496
10	6446170	20420.109957598708	28429
10	7720707	20480.137708537738	20395
10	9071743	20540.156564320028	15660
10	10494980	20600.177710390723	16938
10	12016461	20660.197063184611	15525
10	13600267	20720.217654606173	16566
10	15224615	20780.242138475732	18261
10	16917066	20840.26271991332	25252
10	18677602	20900.288097853545	25335
10	20510356	20960.31434856923	25627
10	22461094	21020.333611435185	28625
10	24496157	21080.356107187194	28898
10	26598251	21140.379824615418	28330
10	28794492	21200.397870761788	30342
10	31066280	21260.420479605448	30273
10	33367632	21320.442825450678	31604
10	35691900	21380.462668027622	31445
10	38049446	21440.488817102453	31843
10	40417820	21500.506717403096	31730
10	42789997	21560.528871447221	31267
10	45160439	21620.549972877336	31273
10	47532929	21680.567038624806	32195
10	49906089	21740.591838019077	32583
10	52279744	21800.616910722984	31544
10	54653582	21860.639571587322	32980
10	57028388	21920.656290414847	31266
10	59401835	21980.68210910376	31546
10	61776248	22040.699925276449	31652
10	64149825	22100.719262608866	31301
10	66522773	22160.736510526921	31153
10	68896674	22220.756682983303	32337
10	71271753	22280.780960463429	32473
10	73644083	22340.800593932556	31733
10	76018656	22400.826791253647	31893
10	78392436	22460.844544541003	30989
10	80765565	22520.86348215591	31372
10	83140450	22580.889718670753	32385
10	85513831	22640.907128424162	31292
10	87887129	22700.929616749249	32200
10	90260976	22760.950383518541	31473
10	92635405	22820.970470229117	31490
10	95009501	22880.988366061028	31733
10	97383973	22941.009317514892	32319
10	99759815	23001.028123675906	31589
10	102131538	23061.049001800777	30978
10	104505464	23121.075003173606	31460
10	106879235	23181.095626618133	31271
10	109252365	23241.123630337912	31889
10	111626036	23301.141296066758	31883
10	113999898	23361.168963468214	31928
10	116374535	23421.193395148328	31363
10	118747450	23481.213090034417	31531
10	121122811	23541.230831822815	31904
10	123500069	23601.253467474644	32343
11	2	20000	5052
11	656263	20060	107865
11	1409626	20120.021124763105	130882
11	3152275	20240.046893615015	308065
11	4161996	20300.068681719165	182663
11	5251403	20360.09062118541	197818
11	6446170	20420.109957598708	218118
11	7720707	20480.137708537738	233394
11	9071743	20540.156564320028	249062
11	10494980	20600.177710390723	263061
11	12016461	20660.197063184611	283834
11	13600267	20720.217654606173	296227
11	15224615	20780.242138475732	304869
11	16917066	20840.26271991332	318186
11	18677602	20900.288097853545	332859
11	20510356	20960.31434856923	347436
11	22461094	21020.333611435185	371507
11	24496157	21080.356107187194	388209
11	26598251	21140.379824615418	402032
11	28794492	21200.397870761788	421182
11	31066280	21260.420479605448	436030
11	33367632	21320.442825450678	442065
11	35691900	21380.462668027622	446905
11	38049446	21440.488817102453	453494
11	40417820	21500.506717403096	455549
11	42789997	21560.528871447221	456287
11	45160439	21620.549972877336	456363
11	47532929	21680.567038624806	456433
11	49906089	21740.591838019077	456816
11	52279744	21800.616910722984	456816
11	54653582	21860.639571587322	456816
11	57028388	21920.656290414847	456816
11	59401835	21980.68210910376	456816
11	61776248	22040.699925276449	456816
11	64149825	22100.719262608866	456816
11	66522773	22160.736510526921	456816
11	68896674	22220.756682983303	456807
11	71271753	22280.780960463429	456816
11	73644083	22340.800593932556	456816
11	76018656	22400.826791253647	456816
11	78392436	22460.844544541003	456816
11	80765565	22520.86348215591	456816
11	83140450	22580.889718670753	456816
11	85513831	22640.907128424162	456816
11	87887129	22700.929616749249	456816
11	90260976	22760.950383518541	456816
11	92635405	22820.970470229117	456816
11	95009501	22880.988366061028	456816
11	97383973	22941.009317514892	456832
11	99759815	23001.028123675906	456816
11	102131538	23061.049001800777	456816
11	104505464	23121.075003173606	456816
11	106879235	23181.095626618133	456816
11	109252365	23241.123630337912	456816
11	111626036	23301.141296066758	456816
11	113999898	23361.168963468214	456816
11	116374535	23421.193395148328	456816
11	118747450	23481.213090034417	456816
11	121122811	23541.230831822815	456816
11	123500069	23601.253467474644	456775
12	2	20000	0
12	656263	20060	0
12	1409626	20120.021124763105	0
12	3152275	20240.046893615015	0
12	4161996	20300.068681719165	0
12	5251403	20360.09062118541	0
12	6446170	20420.109957598708	0
12	7720707	20480.137708537738	0
12	9071743	20540.156564320028	0
12	10494980	20600.177710390723	0
12	12016461	20660.197063184611	0
12	13600267	20720.217654606173	0
12	15224615	20780.242138475732	0
12	16917066	20840.26271991332	4
12	18677602	20900.288097853545	38
12	20510356	20960.31434856923	28
12	22461094	21020.333611435185	28
12	24496157	21080.356107187194	20
12	26598251	21140.379824615418	29
12	28794492	21200.397870761788	21
12	31066280	21260.420479605448	23
12	33367632	21320.442825450678	22
12	35691900	21380.462668027622	19
12	38049446	21440.488817102453	20
12	40417820	21500.506717403096	21
12	42789997	21560.528871447221	18
12	45160439	21620.549972877336	23
12	47532929	21680.567038624806	21
12	49906089	21740.591838019077	14
12	52279744	21800.616910722984	17
12	54653582	21860.639571587322	20
12	57028388	21920.656290414847	25
12	59401835	21980.68210910376	26
12	61776248	22040.699925276449	18
12	64149825	22100.719262608866	15
12	66522773	22160.736510526921	23
12	68896674	22220.756682983303	18
12	71271753	22280.780960463429	20
12	73644083	22340.800593932556	19
12	76018656	22400.826791253647	26
12	78392436	22460.844544541003	20
12	80765565	22520.86348215591	15
12	83140450	22580.889718670753	15
12	85513831	22640.907128424162	20
12	87887129	22700.929616749249	14
12	90260976	22760.950383518541	20
12	92635405	22820.970470229117	20
12	95009501	22880.988366061028	20
12	97383973	22941.009317514892	15
12	99759815	23001.028123675906	19
12	102131538	23061.049001800777	17
12	104505464	23121.075003173606	20
12	106879235	23181.095626618133	18
12	109252365	23241.123630337912	16
12	111626036	23301.141296066758	15
12	113999898	23361.168963468214	17
12	116374535	23421.193395148328	24
12	118747450	23481.213090034417	16
12	121122811	23541.230831822815	21
12	123500069	23601.253467474644	18

