version 2
run MoST-MaliciousCoordinated-0-20201103-16:32:57-27854
attr configname MoST-MaliciousCoordinated
attr datetime 20201103-16:32:57
attr experiment MoST-MaliciousCoordinated
attr inifile omnetpp.ini
attr iterationvars ""
attr iterationvarsf ""
attr measurement ""
attr network CoordinatedAttackScenario
attr processid 27854
attr repetition 0
attr replication #0
attr resultdir results
attr runnumber 0
attr seedset 0
param *.playgroundSizeX 10500m
param *.playgroundSizeY 7000m
param *.playgroundSizeZ 50m
param *.manager.launchConfig "xmldoc(\"most.launchd.xml\")"
param *.manager.connectAt 14400s
param *.manager.firstStepAt 20000s
param *.manager.updateInterval 250ms
param *.manager.moduleType "\"passenger1=org.car2x.veins.subprojects.simulator.nodes.Vehicle passenger2a=org.car2x.veins.subprojects.simulator.nodes.Vehicle passenger2b=org.car2x.veins.subprojects.simulator.nodes.Vehicle passenger3=org.car2x.veins.subprojects.simulator.nodes.Vehicle passenger4=org.car2x.veins.subprojects.simulator.nodes.Vehicle *=org.car2x.veins.subprojects.simulator.nodes.NonPartakingVehicle\""
param *.manager.moduleName "\"passenger1=node passenger2a=node passenger2b=node passenger3=node passenger4=node *=other\""
param *.manager.moduleDisplayString "\"passenger1='i=veins/node/car;is=vs' passenger2a='i=veins/node/car;is=vs' passenger2b='i=veins/node/car;is=vs' passenger3='i=veins/node/car;is=vs' passenger4='i=veins/node/car;is=vs' *='i=veins/node/bicycle;is=vs'\""
param *.manager.secondModuleType "\"passenger1=org.car2x.veins.subprojects.simulator.nodes.Vehicle passenger2a=org.car2x.veins.subprojects.simulator.nodes.Vehicle passenger2b=org.car2x.veins.subprojects.simulator.nodes.Vehicle passenger3=org.car2x.veins.subprojects.simulator.nodes.Vehicle passenger4=org.car2x.veins.subprojects.simulator.nodes.Vehicle *=org.car2x.veins.subprojects.simulator.nodes.NonPartakingVehicle\""
param *.rsuPlacer.rows 20
param *.rsuPlacer.cols 20
param *.rsuPlacer.rsuDisplayString "\"i=veins/node/cone;is=vs\""
param *.node2[*].app.blockchain.validatorModule "\"org.car2x.veins.subprojects.simulator.modules.validation.PlausibilityValidation\""
param *.node2[*].app.generatorModule "\"org.car2x.veins.subprojects.simulator.modules.transactions.RandomTransactionGenerator\""
param *.node2[*].app.transactionGenerator.answerBack true
param *.node2[*].app.transactionGenerator.transactionsPerTurn 40
param *.**.app.blockchain.statusUpdateModule "\"org.car2x.veins.subprojects.simulator.modules.status.FixedReward\""
param *.**.app.transactionGenerator.maxOffset 6000m
param *.**.app.transactionGenerator.minOffset 4500m
param *.manager.vehicleCap 1500
param *.manager.ratio 0.05
param *.**.app.transactionGenerator.range 15m
param *.**.wave.range 15m
param *.logger.logFile "\"results/MoST-MaliciousCoordinated--0.blockchain.log\""
param *.addressTable.logFile "\"results/MoST-MaliciousCoordinated--0.addresses.log\""
param *.maliciousNodes 0
param *.nodePlacer.x 500
param *.nodePlacer.y 500
param *.**.app.blockchain.statusUpdater.maxReward 4096
param *.**.app.blockchain.statusUpdater.reward 256
param *.**.app.blockchain.statusUpdater.penalty 512
param *.**.app.blockchain.statusUpdater.startingReward 64
param *.**.app.blockchain.blockValidator.decayRate 0.3
param *.**.app.blockchain.blockValidator.varianceWeight 0.67
param *.**.app.blockchain.blockValidator.maxConflicts 2
param *.**.app.blockchain.blockchain.storedChainLength 10
param *.**.app.blockchain.blockValidator.depth 3
param *.**.app.blockchain.blockValidator.threshold 0.1
param *.**.app.transactionPeriod 5s
param *.manager.secondModuleType "\"org.car2x.veins.subprojects.simulator.nodes.Vehicle\""
param *.manager.ratio 0.1
param *.rsuPlacer.rows 16
param *.rsuPlacer.cols 16
param *.rsuPlacer.rsuDisplayString "\"i=veins/node/cone;is=vs\""
param *.**.app.blockchain.statusUpdater.rsuStartingReward 2048
param *.**.app.blockchain.statusUpdater.startingReward 1024
param *.**.app.blockchain.statusUpdater.reward 512
param *.**.app.blockchain.statusUpdater.penalty 2048
param *.**.app.blockchain.statusUpdater.maxReward 4096
param *.**.app.blockchain.consensusModule "\"org.car2x.veins.subprojects.simulator.modules.consensus.BaseVotingModel\""
param *.**.app.blockchain.filterModule "\"org.car2x.veins.subprojects.simulator.modules.blocks.SimpleFilter\""
param *.**.app.blockchain.harvesterModule "\"org.car2x.veins.subprojects.simulator.modules.harvesting.DeterministicHarvester\""
param *.**.app.blockchain.statusUpdateModule "\"org.car2x.veins.subprojects.simulator.modules.status.FixedReward\""
param *.**.app.blockchain.consensusModel.harvesters 3
param *.**.app.blockchain.consensusModel.faultTolerance 6
param *.**.app.blockchain.consensusModel.timeout 3s
param *.**.app.transactionPeriod 1s
param *.**.app.transactionGenerator.range 40m
param *.**.app.applicationModule "\"org.car2x.veins.subprojects.simulator.modules.application.TestApplication\""
param *.node[*].app.blockchain.validatorModule "\"org.car2x.veins.subprojects.simulator.modules.validation.PlausibilityValidation\""
param *.node[*].app.generatorModule "\"org.car2x.veins.subprojects.simulator.modules.transactions.ValidTransactionGenerator\""
param *.node2[*].app.blockchain.validatorModule "\"org.car2x.veins.subprojects.simulator.modules.validation.SelfishValidator\""
param *.node2[*].app.generatorModule "\"org.car2x.veins.subprojects.simulator.modules.transactions.MimicTransactionGenerator\""
param *.node[*].veinsmobility.x 0
param *.node[*].veinsmobility.y 0
param *.node[*].veinsmobility.z 0
param *.node[*].veinsmobility.setHostSpeed false
param *.node[*].veinsmobility.accidentCount 0
param *.node[*].veinsmobility.accidentStart 0s
param *.node[*].veinsmobility.accidentDuration 0s
param *.node2[*].veinsmobility.x 0
param *.node2[*].veinsmobility.y 0
param *.node2[*].veinsmobility.z 0
param *.node2[*].veinsmobility.setHostSpeed false
param *.node2[*].veinsmobility.accidentCount 0
param *.node2[*].veinsmobility.accidentStart 0s
param *.node2[*].veinsmobility.accidentDuration 0s
param *.RSU[*].app.blockchain.validatorModule "\"org.car2x.veins.subprojects.simulator.modules.validation.PlausibilityValidation\""
param *.RSU[*].app.generatorModule "\"org.car2x.veins.subprojects.simulator.modules.transactions.ValidTransactionGenerator\""
param *.RSU[*].app.blockchain.blockchain.downloadAtStart false
param *.playgroundSizeX 2500m
param *.playgroundSizeY 2500m
param *.playgroundSizeZ 50m
param *.annotations.draw true
param *.obstacles.obstacles "xmldoc(\"config.xml\", \"//AnalogueModel[@type='SimpleObstacleShadowing']/obstacles\")"
param *.manager.updateInterval 1s
param *.manager.host "\"localhost\""
param *.manager.port 9999
param *.manager.autoShutdown true
param *.manager.launchConfig "xmldoc(\"erlangen.launchd.xml\")"
param *.manager.moduleType "\"org.car2x.veins.subprojects.simulator.nodes.Vehicle\""
param *.manager.secondModuleType "\"org.car2x.veins.subprojects.simulator.nodes.Vehicle\""
param *.manager.ratio 0.0
param *.connectionManager.sendDirect true
param *.connectionManager.maxInterfDist 2600m
param *.connectionManager.drawMaxIntfDist false
param *.**.wave.range 40m
param *.**.wave.speed 6Gbps
param *.**.inet.speed 10Gbps
param *.**.app.blockchain.blocksize 50000
param *.**.app.blockchain.blocktime 60s
param *.**.app.blockchain.blockValidator.maxSpeed 130kmph
param *.logger.logFile "\"results/MoST-MaliciousCoordinated-0.blockchain.log\""
param *.addressTable.logFile "\"results/MoST-MaliciousCoordinated-0.addresses.log\""
param *.RSU[*].app.blockchain.blockchain.downloadAtStart false
param *.**.app.blockchain.consensusModule "\"org.car2x.veins.subprojects.simulator.modules.consensus.TrustedEnvironment\""
param *.**.app.blockchain.filterModule "\"org.car2x.veins.subprojects.simulator.modules.blocks.SimpleFilter\""
param *.**.app.blockchain.harvesterModule "\"org.car2x.veins.subprojects.simulator.modules.harvesting.DeterministicHarvester\""
param *.**.app.blockchain.statusUpdateModule "\"org.car2x.veins.subprojects.simulator.modules.status.FixedReward\""
param *.**.app.blockchain.validatorModule "\"org.car2x.veins.subprojects.simulator.modules.validation.PlausibilityValidation\""
param *.**.app.generatorModule "\"org.car2x.veins.subprojects.simulator.modules.transactions.ValidTransactionGenerator\""
param *.**.app.applicationModule "\"org.car2x.veins.subprojects.simulator.modules.application.TestApplication\""
param *.**.app.transactionPeriod 1s
param *.**.app.transactionGenerator.range 40m
param *.**.app.blockchain.consensusModel.faultTolerance 6
param *.**.app.blockchain.consensusModel.timeout 2s
param *.node[*].veinsmobility.x 0
param *.node[*].veinsmobility.y 0
param *.node[*].veinsmobility.z 0
param *.node[*].veinsmobility.setHostSpeed false
param *.node[*].veinsmobility.accidentCount 0
param *.node[*].veinsmobility.accidentStart 0s
param *.node[*].veinsmobility.accidentDuration 0s

vector 0 CoordinatedAttackScenario.logger TotalReputationAverage ETV
vector 1 CoordinatedAttackScenario.logger ActiveType1ReputationAverage ETV
vector 2 CoordinatedAttackScenario.logger ActiveType2ReputationAverage ETV
vector 3 CoordinatedAttackScenario.logger NumberOfNodes ETV
vector 4 CoordinatedAttackScenario.logger NumberOfActiveType1Nodes ETV
vector 5 CoordinatedAttackScenario.logger NumberOfActiveType2Nodes ETV
vector 6 CoordinatedAttackScenario.logger NumberOfActiveNodes ETV
vector 7 CoordinatedAttackScenario.logger NumberOfAcceptableTransactions ETV
vector 8 CoordinatedAttackScenario.logger NumberOfPlausibleTransactions ETV
vector 9 CoordinatedAttackScenario.logger NumberOfAcceptedType2Transactions ETV
vector 10 CoordinatedAttackScenario.logger NumberOfUnacceptedType1Transactions ETV
vector 11 CoordinatedAttackScenario.logger TotalTransactions ETV
vector 12 CoordinatedAttackScenario.logger Type2Transactions ETV
0	2	20000	2048
0	628688	20060	30.700507614213
0	1355080	20120.019432621355	26.458563535912
0	2159594	20180.037920640066	28.941597139452
0	3032139	20240.060612635221	120.84678362573
0	4022517	20300.082047107475	242
0	5086708	20360.101948906579	317.08786381109
0	6236707	20420.126682130034	378.1787620064
0	7462363	20480.147335773389	646.2186512118
0	8758157	20540.172424213537	726.94099051633
0	10121865	20600.198350299397	757.07586933614
0	11582294	20660.217231179985	982.17228661749
0	13102355	20720.235399986782	1037.0632244468
0	14662008	20780.255592058301	1042.9668071654
0	16281953	20840.281689492502	1027.0031612223
0	17966507	20900.303571067885	1002.7228661749
0	19713603	20960.326997073318	893.41886195996
0	21572214	21020.349083399413	838.76817702845
0	23509810	21080.369706557514	743.5990516333
0	25505415	21140.39227731674	680.0727081138
0	27590726	21200.415939830997	585.22971548999
0	29745176	21260.435860860881	503.37144362487
0	31928572	21320.460688454308	494.36512118019
0	34133655	21380.483740179052	468.14278187566
0	36369426	21440.504313851602	456.6248682824
0	38613399	21500.530516333158	443.00421496312
0	40861148	21560.552208884851	434.99051633298
0	43109631	21620.575267206842	455.07218124341
0	45358308	21680.601578138541	445.81928345627
0	47611671	21740.620936157571	409.76606954689
0	49860263	21800.640508553729	423.17070600632
0	52109760	21860.661724222293	431.34826132771
0	54361376	21920.68640572423	434.06585879874
0	56610712	21980.705867793457	398.37934668072
0	58861184	22040.731793366319	375.29557428872
0	61113058	22100.751419362704	377.56006322445
0	63362574	22160.769829664808	406.60853530032
0	65610807	22220.793482878554	398.38724973656
0	67863417	22280.813629641382	406.2866174921
0	70114197	22340.835942311666	440.93940990516
0	72364693	22400.858171151711	409.68809272919
0	74615132	22460.881835360379	434.71285563751
0	76865804	22520.906902813685	409.36880927292
0	79117078	22580.93138441515	447.73024236038
0	81367047	22640.955589894468	447.20653319283
0	83617582	22700.980783878328	451.80453108535
0	85868926	22761.000272337521	403.5105374078
0	88120067	22821.02267278706	371.82349841939
0	90369995	22881.048114958119	397.29978925184
0	92620705	22941.073942364346	411.89620653319
0	94872079	23001.094559112092	390.90727081138
0	97121937	23061.11575414966	388.68440463646
0	99373184	23121.138037139473	407.36564805058
0	101622977	23181.1626002825	398.62592202318
0	103873690	23241.182892842409	428.19652265543
0	106127058	23301.205385971422	373.54952581665
0	108374904	23361.230604929369	396.51844046365
0	110630445	23421.25138415477	399.30347734457
0	112880381	23481.269663630405	405.5416227608
0	115128804	23541.288155452105	421.47629083246
0	117381973	23601.308542800612	397.88724973656
1	2	20000	2048
1	628688	20060	52.591304347826
1	1355080	20120.019432621355	45.417281348788
1	2159594	20180.037920640066	50.852356020942
1	3032139	20240.060612635221	217.29547844374
1	4022517	20300.082047107475	445.39103232534
1	5086708	20360.101948906579	597.74016563147
1	6236707	20420.126682130034	703.78053624628
1	7462363	20480.147335773389	1189.6440349176
1	8758157	20540.172424213537	1352.6803921569
1	10121865	20600.198350299397	1451.4444444444
1	11582294	20660.217231179985	1869.7723169509
1	13102355	20720.235399986782	2043.9730010384
1	14662008	20780.255592058301	2042.8802889577
1	16281953	20840.281689492502	2022.0456431535
1	17966507	20900.303571067885	1980.4037460978
1	19713603	20960.326997073318	1764.5254942768
1	21572214	21020.349083399413	1658.3145833333
1	23509810	21080.369706557514	1471.6903023983
1	25505415	21140.39227731674	1341.7650727651
1	27590726	21200.415939830997	1132.2793068298
1	29745176	21260.435860860881	965.04949494949
1	31928572	21320.460688454308	945.87197580645
1	34133655	21380.483740179052	891.20862587763
1	36369426	21440.504313851602	864.08175473579
1	38613399	21500.530516333158	837.47211155378
1	40861148	21560.552208884851	821.50447761194
1	43109631	21620.575267206842	858.57554671968
1	45358308	21680.601578138541	841.11829025845
1	47611671	21740.620936157571	773.09741550696
1	49860263	21800.640508553729	798.38767395626
1	52109760	21860.661724222293	813.81610337972
1	54361376	21920.68640572423	818.94333996024
1	56610712	21980.705867793457	751.61431411531
1	58861184	22040.731793366319	708.06262425447
1	61113058	22100.751419362704	712.33499005964
1	63362574	22160.769829664808	767.14015904573
1	65610807	22220.793482878554	751.62922465209
1	67863417	22280.813629641382	766.53280318091
1	70114197	22340.835942311666	831.91153081511
1	72364693	22400.858171151711	772.95029821074
1	74615132	22460.881835360379	820.16401590457
1	76865804	22520.906902813685	772.34791252485
1	79117078	22580.93138441515	844.72365805169
1	81367047	22640.955589894468	843.73558648111
1	83617582	22700.980783878328	852.41053677932
1	85868926	22761.000272337521	761.29522862823
1	88120067	22821.02267278706	701.51192842942
1	90369995	22881.048114958119	749.57753479125
1	92620705	22941.073942364346	777.11630218688
1	94872079	23001.094559112092	737.51689860835
1	97121937	23061.11575414966	733.32306163022
1	99373184	23121.138037139473	768.56858846918
1	101622977	23181.1626002825	752.07952286282
1	103873690	23241.182892842409	807.86978131213
1	106127058	23301.205385971422	704.76838966203
1	108374904	23361.230604929369	748.10337972167
1	110630445	23421.25138415477	753.3578528827
1	112880381	23481.269663630405	765.12723658052
1	115128804	23541.288155452105	795.19085487078
1	117381973	23601.308542800612	750.68588469185
2	2	20000	0
2	628688	20060	0
2	1355080	20120.019432621355	0
2	2159594	20180.037920640066	0
2	3032139	20240.060612635221	0
2	4022517	20300.082047107475	0
2	5086708	20360.101948906579	0
2	6236707	20420.126682130034	0
2	7462363	20480.147335773389	0
2	8758157	20540.172424213537	0
2	10121865	20600.198350299397	0
2	11582294	20660.217231179985	0
2	13102355	20720.235399986782	0
2	14662008	20780.255592058301	0
2	16281953	20840.281689492502	0
2	17966507	20900.303571067885	0
2	19713603	20960.326997073318	0
2	21572214	21020.349083399413	0
2	23509810	21080.369706557514	0
2	25505415	21140.39227731674	0
2	27590726	21200.415939830997	0
2	29745176	21260.435860860881	0
2	31928572	21320.460688454308	0
2	34133655	21380.483740179052	0
2	36369426	21440.504313851602	0
2	38613399	21500.530516333158	0
2	40861148	21560.552208884851	0
2	43109631	21620.575267206842	0
2	45358308	21680.601578138541	0
2	47611671	21740.620936157571	0
2	49860263	21800.640508553729	0
2	52109760	21860.661724222293	0
2	54361376	21920.68640572423	0
2	56610712	21980.705867793457	0
2	58861184	22040.731793366319	0
2	61113058	22100.751419362704	0
2	63362574	22160.769829664808	0
2	65610807	22220.793482878554	0
2	67863417	22280.813629641382	0
2	70114197	22340.835942311666	0
2	72364693	22400.858171151711	0
2	74615132	22460.881835360379	0
2	76865804	22520.906902813685	0
2	79117078	22580.93138441515	0
2	81367047	22640.955589894468	0
2	83617582	22700.980783878328	0
2	85868926	22761.000272337521	0
2	88120067	22821.02267278706	0
2	90369995	22881.048114958119	0
2	92620705	22941.073942364346	0
2	94872079	23001.094559112092	0
2	97121937	23061.11575414966	0
2	99373184	23121.138037139473	0
2	101622977	23181.1626002825	0
2	103873690	23241.182892842409	0
2	106127058	23301.205385971422	0
2	108374904	23361.230604929369	0
2	110630445	23421.25138415477	0
2	112880381	23481.269663630405	0
2	115128804	23541.288155452105	0
2	117381973	23601.308542800612	0
3	2	20000	400
3	628688	20060	1576
3	1355080	20120.019432621355	1629
3	2159594	20180.037920640066	1678
3	3032139	20240.060612635221	1710
3	4022517	20300.082047107475	1765
3	5086708	20360.101948906579	1821
3	6236707	20420.126682130034	1874
3	7462363	20480.147335773389	1898
3	8758157	20540.172424213537	1898
3	10121865	20600.198350299397	1898
3	11582294	20660.217231179985	1898
3	13102355	20720.235399986782	1898
3	14662008	20780.255592058301	1898
3	16281953	20840.281689492502	1898
3	17966507	20900.303571067885	1898
3	19713603	20960.326997073318	1898
3	21572214	21020.349083399413	1898
3	23509810	21080.369706557514	1898
3	25505415	21140.39227731674	1898
3	27590726	21200.415939830997	1898
3	29745176	21260.435860860881	1898
3	31928572	21320.460688454308	1898
3	34133655	21380.483740179052	1898
3	36369426	21440.504313851602	1898
3	38613399	21500.530516333158	1898
3	40861148	21560.552208884851	1898
3	43109631	21620.575267206842	1898
3	45358308	21680.601578138541	1898
3	47611671	21740.620936157571	1898
3	49860263	21800.640508553729	1898
3	52109760	21860.661724222293	1898
3	54361376	21920.68640572423	1898
3	56610712	21980.705867793457	1898
3	58861184	22040.731793366319	1898
3	61113058	22100.751419362704	1898
3	63362574	22160.769829664808	1898
3	65610807	22220.793482878554	1898
3	67863417	22280.813629641382	1898
3	70114197	22340.835942311666	1898
3	72364693	22400.858171151711	1898
3	74615132	22460.881835360379	1898
3	76865804	22520.906902813685	1898
3	79117078	22580.93138441515	1898
3	81367047	22640.955589894468	1898
3	83617582	22700.980783878328	1898
3	85868926	22761.000272337521	1898
3	88120067	22821.02267278706	1898
3	90369995	22881.048114958119	1898
3	92620705	22941.073942364346	1898
3	94872079	23001.094559112092	1898
3	97121937	23061.11575414966	1898
3	99373184	23121.138037139473	1898
3	101622977	23181.1626002825	1898
3	103873690	23241.182892842409	1898
3	106127058	23301.205385971422	1898
3	108374904	23361.230604929369	1898
3	110630445	23421.25138415477	1898
3	112880381	23481.269663630405	1898
3	115128804	23541.288155452105	1898
3	117381973	23601.308542800612	1898
4	2	20000	400
4	628688	20060	920
4	1355080	20120.019432621355	949
4	2159594	20180.037920640066	955
4	3032139	20240.060612635221	951
4	4022517	20300.082047107475	959
4	5086708	20360.101948906579	966
4	6236707	20420.126682130034	1007
4	7462363	20480.147335773389	1031
4	8758157	20540.172424213537	1020
4	10121865	20600.198350299397	990
4	11582294	20660.217231179985	997
4	13102355	20720.235399986782	963
4	14662008	20780.255592058301	969
4	16281953	20840.281689492502	964
4	17966507	20900.303571067885	961
4	19713603	20960.326997073318	961
4	21572214	21020.349083399413	960
4	23509810	21080.369706557514	959
4	25505415	21140.39227731674	962
4	27590726	21200.415939830997	981
4	29745176	21260.435860860881	990
4	31928572	21320.460688454308	992
4	34133655	21380.483740179052	997
4	36369426	21440.504313851602	1003
4	38613399	21500.530516333158	1004
4	40861148	21560.552208884851	1005
4	43109631	21620.575267206842	1006
4	45358308	21680.601578138541	1006
4	47611671	21740.620936157571	1006
4	49860263	21800.640508553729	1006
4	52109760	21860.661724222293	1006
4	54361376	21920.68640572423	1006
4	56610712	21980.705867793457	1006
4	58861184	22040.731793366319	1006
4	61113058	22100.751419362704	1006
4	63362574	22160.769829664808	1006
4	65610807	22220.793482878554	1006
4	67863417	22280.813629641382	1006
4	70114197	22340.835942311666	1006
4	72364693	22400.858171151711	1006
4	74615132	22460.881835360379	1006
4	76865804	22520.906902813685	1006
4	79117078	22580.93138441515	1006
4	81367047	22640.955589894468	1006
4	83617582	22700.980783878328	1006
4	85868926	22761.000272337521	1006
4	88120067	22821.02267278706	1006
4	90369995	22881.048114958119	1006
4	92620705	22941.073942364346	1006
4	94872079	23001.094559112092	1006
4	97121937	23061.11575414966	1006
4	99373184	23121.138037139473	1006
4	101622977	23181.1626002825	1006
4	103873690	23241.182892842409	1006
4	106127058	23301.205385971422	1006
4	108374904	23361.230604929369	1006
4	110630445	23421.25138415477	1006
4	112880381	23481.269663630405	1006
4	115128804	23541.288155452105	1006
4	117381973	23601.308542800612	1006
5	2	20000	0
5	628688	20060	59
5	1355080	20120.019432621355	60
5	2159594	20180.037920640066	61
5	3032139	20240.060612635221	63
5	4022517	20300.082047107475	66
5	5086708	20360.101948906579	68
5	6236707	20420.126682130034	70
5	7462363	20480.147335773389	70
5	8758157	20540.172424213537	69
5	10121865	20600.198350299397	66
5	11582294	20660.217231179985	64
5	13102355	20720.235399986782	63
5	14662008	20780.255592058301	59
5	16281953	20840.281689492502	59
5	17966507	20900.303571067885	58
5	19713603	20960.326997073318	58
5	21572214	21020.349083399413	57
5	23509810	21080.369706557514	57
5	25505415	21140.39227731674	57
5	27590726	21200.415939830997	57
5	29745176	21260.435860860881	57
5	31928572	21320.460688454308	55
5	34133655	21380.483740179052	55
5	36369426	21440.504313851602	55
5	38613399	21500.530516333158	55
5	40861148	21560.552208884851	55
5	43109631	21620.575267206842	55
5	45358308	21680.601578138541	55
5	47611671	21740.620936157571	55
5	49860263	21800.640508553729	55
5	52109760	21860.661724222293	55
5	54361376	21920.68640572423	55
5	56610712	21980.705867793457	55
5	58861184	22040.731793366319	55
5	61113058	22100.751419362704	55
5	63362574	22160.769829664808	55
5	65610807	22220.793482878554	55
5	67863417	22280.813629641382	55
5	70114197	22340.835942311666	55
5	72364693	22400.858171151711	55
5	74615132	22460.881835360379	55
5	76865804	22520.906902813685	55
5	79117078	22580.93138441515	55
5	81367047	22640.955589894468	55
5	83617582	22700.980783878328	55
5	85868926	22761.000272337521	55
5	88120067	22821.02267278706	55
5	90369995	22881.048114958119	55
5	92620705	22941.073942364346	55
5	94872079	23001.094559112092	55
5	97121937	23061.11575414966	55
5	99373184	23121.138037139473	55
5	101622977	23181.1626002825	55
5	103873690	23241.182892842409	55
5	106127058	23301.205385971422	55
5	108374904	23361.230604929369	55
5	110630445	23421.25138415477	55
5	112880381	23481.269663630405	55
5	115128804	23541.288155452105	55
5	117381973	23601.308542800612	55
6	2	20000	400
6	628688	20060	979
6	1355080	20120.019432621355	1009
6	2159594	20180.037920640066	1016
6	3032139	20240.060612635221	1014
6	4022517	20300.082047107475	1025
6	5086708	20360.101948906579	1034
6	6236707	20420.126682130034	1077
6	7462363	20480.147335773389	1101
6	8758157	20540.172424213537	1089
6	10121865	20600.198350299397	1056
6	11582294	20660.217231179985	1061
6	13102355	20720.235399986782	1026
6	14662008	20780.255592058301	1028
6	16281953	20840.281689492502	1023
6	17966507	20900.303571067885	1019
6	19713603	20960.326997073318	1019
6	21572214	21020.349083399413	1017
6	23509810	21080.369706557514	1016
6	25505415	21140.39227731674	1019
6	27590726	21200.415939830997	1038
6	29745176	21260.435860860881	1047
6	31928572	21320.460688454308	1047
6	34133655	21380.483740179052	1052
6	36369426	21440.504313851602	1058
6	38613399	21500.530516333158	1059
6	40861148	21560.552208884851	1060
6	43109631	21620.575267206842	1061
6	45358308	21680.601578138541	1061
6	47611671	21740.620936157571	1061
6	49860263	21800.640508553729	1061
6	52109760	21860.661724222293	1061
6	54361376	21920.68640572423	1061
6	56610712	21980.705867793457	1061
6	58861184	22040.731793366319	1061
6	61113058	22100.751419362704	1061
6	63362574	22160.769829664808	1061
6	65610807	22220.793482878554	1061
6	67863417	22280.813629641382	1061
6	70114197	22340.835942311666	1061
6	72364693	22400.858171151711	1061
6	74615132	22460.881835360379	1061
6	76865804	22520.906902813685	1061
6	79117078	22580.93138441515	1061
6	81367047	22640.955589894468	1061
6	83617582	22700.980783878328	1061
6	85868926	22761.000272337521	1061
6	88120067	22821.02267278706	1061
6	90369995	22881.048114958119	1061
6	92620705	22941.073942364346	1061
6	94872079	23001.094559112092	1061
6	97121937	23061.11575414966	1061
6	99373184	23121.138037139473	1061
6	101622977	23181.1626002825	1061
6	103873690	23241.182892842409	1061
6	106127058	23301.205385971422	1061
6	108374904	23361.230604929369	1061
6	110630445	23421.25138415477	1061
6	112880381	23481.269663630405	1061
6	115128804	23541.288155452105	1061
6	117381973	23601.308542800612	1061
7	2	20000	5052
7	628688	20060	27
7	1355080	20120.019432621355	66
7	2159594	20180.037920640066	248
7	3032139	20240.060612635221	2234
7	4022517	20300.082047107475	5207
7	5086708	20360.101948906579	6989
7	6236707	20420.126682130034	8663
7	7462363	20480.147335773389	22268
7	8758157	20540.172424213537	23618
7	10121865	20600.198350299397	23379
7	11582294	20660.217231179985	30140
7	13102355	20720.235399986782	30793
7	14662008	20780.255592058301	30126
7	16281953	20840.281689492502	30028
7	17966507	20900.303571067885	29265
7	19713603	20960.326997073318	27522
7	21572214	21020.349083399413	26141
7	23509810	21080.369706557514	25103
7	25505415	21140.39227731674	25114
7	27590726	21200.415939830997	24037
7	29745176	21260.435860860881	22579
7	31928572	21320.460688454308	21285
7	34133655	21380.483740179052	22049
7	36369426	21440.504313851602	21548
7	38613399	21500.530516333158	21133
7	40861148	21560.552208884851	20846
7	43109631	21620.575267206842	22347
7	45358308	21680.601578138541	22090
7	47611671	21740.620936157571	21066
7	49860263	21800.640508553729	21839
7	52109760	21860.661724222293	21641
7	54361376	21920.68640572423	22835
7	56610712	21980.705867793457	21710
7	58861184	22040.731793366319	21878
7	61113058	22100.751419362704	20106
7	63362574	22160.769829664808	21375
7	65610807	22220.793482878554	21088
7	67863417	22280.813629641382	20467
7	70114197	22340.835942311666	21233
7	72364693	22400.858171151711	20598
7	74615132	22460.881835360379	21763
7	76865804	22520.906902813685	19778
7	79117078	22580.93138441515	20160
7	81367047	22640.955589894468	20197
7	83617582	22700.980783878328	20969
7	85868926	22761.000272337521	19640
7	88120067	22821.02267278706	19465
7	90369995	22881.048114958119	20945
7	92620705	22941.073942364346	19723
7	94872079	23001.094559112092	19946
7	97121937	23061.11575414966	20269
7	99373184	23121.138037139473	21226
7	101622977	23181.1626002825	20529
7	103873690	23241.182892842409	20224
7	106127058	23301.205385971422	19318
7	108374904	23361.230604929369	20738
7	110630445	23421.25138415477	20542
7	112880381	23481.269663630405	19670
7	115128804	23541.288155452105	20192
7	117381973	23601.308542800612	18993
8	2	20000	5052
8	628688	20060	38517
8	1355080	20120.019432621355	39288
8	2159594	20180.037920640066	40104
8	3032139	20240.060612635221	40354
8	4022517	20300.082047107475	40908
8	5086708	20360.101948906579	40566
8	6236707	20420.126682130034	40456
8	7462363	20480.147335773389	41126
8	8758157	20540.172424213537	41220
8	10121865	20600.198350299397	41309
8	11582294	20660.217231179985	41375
8	13102355	20720.235399986782	41784
8	14662008	20780.255592058301	41460
8	16281953	20840.281689492502	41272
8	17966507	20900.303571067885	41070
8	19713603	20960.326997073318	40373
8	21572214	21020.349083399413	40306
8	23509810	21080.369706557514	39784
8	25505415	21140.39227731674	39474
8	27590726	21200.415939830997	38979
8	29745176	21260.435860860881	38816
8	31928572	21320.460688454308	38640
8	34133655	21380.483740179052	38471
8	36369426	21440.504313851602	38281
8	38613399	21500.530516333158	38391
8	40861148	21560.552208884851	38116
8	43109631	21620.575267206842	38264
8	45358308	21680.601578138541	38380
8	47611671	21740.620936157571	38459
8	49860263	21800.640508553729	38553
8	52109760	21860.661724222293	38179
8	54361376	21920.68640572423	38403
8	56610712	21980.705867793457	38285
8	58861184	22040.731793366319	38391
8	61113058	22100.751419362704	37668
8	63362574	22160.769829664808	37467
8	65610807	22220.793482878554	37640
8	67863417	22280.813629641382	38427
8	70114197	22340.835942311666	38441
8	72364693	22400.858171151711	38386
8	74615132	22460.881835360379	38603
8	76865804	22520.906902813685	37699
8	79117078	22580.93138441515	37856
8	81367047	22640.955589894468	37800
8	83617582	22700.980783878328	38277
8	85868926	22761.000272337521	38401
8	88120067	22821.02267278706	38291
8	90369995	22881.048114958119	38104
8	92620705	22941.073942364346	38532
8	94872079	23001.094559112092	38479
8	97121937	23061.11575414966	38391
8	99373184	23121.138037139473	38476
8	101622977	23181.1626002825	38250
8	103873690	23241.182892842409	38517
8	106127058	23301.205385971422	38289
8	108374904	23361.230604929369	38494
8	110630445	23421.25138415477	38060
8	112880381	23481.269663630405	38300
8	115128804	23541.288155452105	38354
8	117381973	23601.308542800612	38352
9	2	20000	0
9	628688	20060	0
9	1355080	20120.019432621355	0
9	2159594	20180.037920640066	1
9	3032139	20240.060612635221	1
9	4022517	20300.082047107475	4
9	5086708	20360.101948906579	4
9	6236707	20420.126682130034	3
9	7462363	20480.147335773389	8
9	8758157	20540.172424213537	6
9	10121865	20600.198350299397	13
9	11582294	20660.217231179985	14
9	13102355	20720.235399986782	12
9	14662008	20780.255592058301	12
9	16281953	20840.281689492502	12
9	17966507	20900.303571067885	17
9	19713603	20960.326997073318	25
9	21572214	21020.349083399413	16
9	23509810	21080.369706557514	17
9	25505415	21140.39227731674	23
9	27590726	21200.415939830997	16
9	29745176	21260.435860860881	8
9	31928572	21320.460688454308	20
9	34133655	21380.483740179052	11
9	36369426	21440.504313851602	17
9	38613399	21500.530516333158	15
9	40861148	21560.552208884851	7
9	43109631	21620.575267206842	12
9	45358308	21680.601578138541	11
9	47611671	21740.620936157571	18
9	49860263	21800.640508553729	13
9	52109760	21860.661724222293	21
9	54361376	21920.68640572423	12
9	56610712	21980.705867793457	7
9	58861184	22040.731793366319	16
9	61113058	22100.751419362704	19
9	63362574	22160.769829664808	4
9	65610807	22220.793482878554	12
9	67863417	22280.813629641382	11
9	70114197	22340.835942311666	18
9	72364693	22400.858171151711	10
9	74615132	22460.881835360379	23
9	76865804	22520.906902813685	11
9	79117078	22580.93138441515	14
9	81367047	22640.955589894468	11
9	83617582	22700.980783878328	5
9	85868926	22761.000272337521	12
9	88120067	22821.02267278706	13
9	90369995	22881.048114958119	6
9	92620705	22941.073942364346	5
9	94872079	23001.094559112092	21
9	97121937	23061.11575414966	7
9	99373184	23121.138037139473	10
9	101622977	23181.1626002825	13
9	103873690	23241.182892842409	12
9	106127058	23301.205385971422	16
9	108374904	23361.230604929369	10
9	110630445	23421.25138415477	9
9	112880381	23481.269663630405	11
9	115128804	23541.288155452105	14
9	117381973	23601.308542800612	8
10	2	20000	0
10	628688	20060	40788
10	1355080	20120.019432621355	41652
10	2159594	20180.037920640066	42286
10	3032139	20240.060612635221	40706
10	4022517	20300.082047107475	38475
10	5086708	20360.101948906579	36827
10	6236707	20420.126682130034	35755
10	7462363	20480.147335773389	22488
10	8758157	20540.172424213537	21661
10	10121865	20600.198350299397	22283
10	11582294	20660.217231179985	15986
10	13102355	20720.235399986782	15571
10	14662008	20780.255592058301	16354
10	16281953	20840.281689492502	16600
10	17966507	20900.303571067885	17555
10	19713603	20960.326997073318	19484
10	21572214	21020.349083399413	21014
10	23509810	21080.369706557514	22226
10	25505415	21140.39227731674	22282
10	27590726	21200.415939830997	23509
10	29745176	21260.435860860881	24959
10	31928572	21320.460688454308	26395
10	34133655	21380.483740179052	25696
10	36369426	21440.504313851602	26186
10	38613399	21500.530516333158	26649
10	40861148	21560.552208884851	26860
10	43109631	21620.575267206842	25436
10	45358308	21680.601578138541	25680
10	47611671	21740.620936157571	26765
10	49860263	21800.640508553729	25980
10	52109760	21860.661724222293	26070
10	54361376	21920.68640572423	24981
10	56610712	21980.705867793457	26077
10	58861184	22040.731793366319	25937
10	61113058	22100.751419362704	27648
10	63362574	22160.769829664808	26349
10	65610807	22220.793482878554	26693
10	67863417	22280.813629641382	27285
10	70114197	22340.835942311666	26566
10	72364693	22400.858171151711	27147
10	74615132	22460.881835360379	26009
10	76865804	22520.906902813685	27981
10	79117078	22580.93138441515	27585
10	81367047	22640.955589894468	27530
10	83617582	22700.980783878328	26766
10	85868926	22761.000272337521	28080
10	88120067	22821.02267278706	28268
10	90369995	22881.048114958119	26749
10	92620705	22941.073942364346	28046
10	94872079	23001.094559112092	27843
10	97121937	23061.11575414966	27507
10	99373184	23121.138037139473	26571
10	101622977	23181.1626002825	27264
10	103873690	23241.182892842409	27550
10	106127058	23301.205385971422	28437
10	108374904	23361.230604929369	27002
10	110630445	23421.25138415477	27059
10	112880381	23481.269663630405	28006
10	115128804	23541.288155452105	27503
10	117381973	23601.308542800612	28671
11	2	20000	5052
11	628688	20060	127654
11	1355080	20120.019432621355	152240
11	2159594	20180.037920640066	168529
11	3032139	20240.060612635221	183654
11	4022517	20300.082047107475	205220
11	5086708	20360.101948906579	220338
11	6236707	20420.126682130034	240078
11	7462363	20480.147335773389	255167
11	8758157	20540.172424213537	269328
11	10121865	20600.198350299397	281608
11	11582294	20660.217231179985	300776
11	13102355	20720.235399986782	311880
11	14662008	20780.255592058301	318934
11	16281953	20840.281689492502	331055
11	17966507	20900.303571067885	343830
11	19713603	20960.326997073318	356528
11	21572214	21020.349083399413	378680
11	23509810	21080.369706557514	394755
11	25505415	21140.39227731674	406608
11	27590726	21200.415939830997	424730
11	29745176	21260.435860860881	438633
11	31928572	21320.460688454308	443519
11	34133655	21380.483740179052	447857
11	36369426	21440.504313851602	453996
11	38613399	21500.530516333158	455939
11	40861148	21560.552208884851	456648
11	43109631	21620.575267206842	456723
11	45358308	21680.601578138541	456791
11	47611671	21740.620936157571	457164
11	49860263	21800.640508553729	457164
11	52109760	21860.661724222293	457164
11	54361376	21920.68640572423	457164
11	56610712	21980.705867793457	457164
11	58861184	22040.731793366319	457164
11	61113058	22100.751419362704	457165
11	63362574	22160.769829664808	457164
11	65610807	22220.793482878554	457164
11	67863417	22280.813629641382	457164
11	70114197	22340.835942311666	457164
11	72364693	22400.858171151711	457164
11	74615132	22460.881835360379	457164
11	76865804	22520.906902813685	457164
11	79117078	22580.93138441515	457164
11	81367047	22640.955589894468	457164
11	83617582	22700.980783878328	457164
11	85868926	22761.000272337521	457164
11	88120067	22821.02267278706	457164
11	90369995	22881.048114958119	457164
11	92620705	22941.073942364346	457164
11	94872079	23001.094559112092	457164
11	97121937	23061.11575414966	457164
11	99373184	23121.138037139473	457164
11	101622977	23181.1626002825	457164
11	103873690	23241.182892842409	457164
11	106127058	23301.205385971422	457164
11	108374904	23361.230604929369	457164
11	110630445	23421.25138415477	457168
11	112880381	23481.269663630405	457165
11	115128804	23541.288155452105	457164
11	117381973	23601.308542800612	457164
12	2	20000	0
12	628688	20060	9185
12	1355080	20120.019432621355	8282
12	2159594	20180.037920640066	7467
12	3032139	20240.060612635221	7061
12	4022517	20300.082047107475	6322
12	5086708	20360.101948906579	6188
12	6236707	20420.126682130034	5585
12	7462363	20480.147335773389	5252
12	8758157	20540.172424213537	4727
12	10121865	20600.198350299397	4351
12	11582294	20660.217231179985	3888
12	13102355	20720.235399986782	3648
12	14662008	20780.255592058301	3532
12	16281953	20840.281689492502	3384
12	17966507	20900.303571067885	3197
12	19713603	20960.326997073318	3019
12	21572214	21020.349083399413	2861
12	23509810	21080.369706557514	2688
12	25505415	21140.39227731674	2627
12	27590726	21200.415939830997	2470
12	29745176	21260.435860860881	2470
12	31928572	21320.460688454308	2340
12	34133655	21380.483740179052	2266
12	36369426	21440.504313851602	2283
12	38613399	21500.530516333158	2233
12	40861148	21560.552208884851	2301
12	43109631	21620.575267206842	2229
12	45358308	21680.601578138541	2241
12	47611671	21740.620936157571	2187
12	49860263	21800.640508553729	2194
12	52109760	21860.661724222293	2310
12	54361376	21920.68640572423	2196
12	56610712	21980.705867793457	2220
12	58861184	22040.731793366319	2201
12	61113058	22100.751419362704	2265
12	63362574	22160.769829664808	2280
12	65610807	22220.793482878554	2231
12	67863417	22280.813629641382	2259
12	70114197	22340.835942311666	2219
12	72364693	22400.858171151711	2265
12	74615132	22460.881835360379	2251
12	76865804	22520.906902813685	2252
12	79117078	22580.93138441515	2269
12	81367047	22640.955589894468	2284
12	83617582	22700.980783878328	2270
12	85868926	22761.000272337521	2292
12	88120067	22821.02267278706	2280
12	90369995	22881.048114958119	2312
12	92620705	22941.073942364346	2236
12	94872079	23001.094559112092	2232
12	97121937	23061.11575414966	2231
12	99373184	23121.138037139473	2213
12	101622977	23181.1626002825	2220
12	103873690	23241.182892842409	2238
12	106127058	23301.205385971422	2261
12	108374904	23361.230604929369	2270
12	110630445	23421.25138415477	2408
12	112880381	23481.269663630405	2335
12	115128804	23541.288155452105	2319
12	117381973	23601.308542800612	2344

