version 2
run MoST-MaliciousCoordinated-2-20201030-20:28:48-23453
attr configname MoST-MaliciousCoordinated
attr datetime 20201030-20:28:48
attr experiment MoST-MaliciousCoordinated
attr inifile omnetpp.ini
attr iterationvars $0=2048
attr iterationvarsf 2048-
attr measurement $0=2048
attr network CoordinatedAttackScenario
attr processid 23453
attr repetition 0
attr replication #0
attr resultdir results
attr runnumber 2
attr seedset 2
param *.playgroundSizeX 10500m
param *.playgroundSizeY 7000m
param *.playgroundSizeZ 50m
param *.manager.launchConfig "xmldoc(\"most.launchd.xml\")"
param *.manager.connectAt 14400s
param *.manager.firstStepAt 20000s
param *.manager.updateInterval 250ms
param *.manager.moduleType "\"passenger1=org.car2x.veins.subprojects.simulator.nodes.Vehicle passenger2a=org.car2x.veins.subprojects.simulator.nodes.Vehicle passenger2b=org.car2x.veins.subprojects.simulator.nodes.Vehicle passenger3=org.car2x.veins.subprojects.simulator.nodes.Vehicle passenger4=org.car2x.veins.subprojects.simulator.nodes.Vehicle *=org.car2x.veins.subprojects.simulator.nodes.NonPartakingVehicle\""
param *.manager.moduleName "\"passenger1=node passenger2a=node passenger2b=node passenger3=node passenger4=node *=other\""
param *.manager.moduleDisplayString "\"passenger1='i=veins/node/car;is=vs' passenger2a='i=veins/node/car;is=vs' passenger2b='i=veins/node/car;is=vs' passenger3='i=veins/node/car;is=vs' passenger4='i=veins/node/car;is=vs' *='i=veins/node/bicycle;is=vs'\""
param *.manager.secondModuleType "\"passenger1=org.car2x.veins.subprojects.simulator.nodes.Vehicle passenger2a=org.car2x.veins.subprojects.simulator.nodes.Vehicle passenger2b=org.car2x.veins.subprojects.simulator.nodes.Vehicle passenger3=org.car2x.veins.subprojects.simulator.nodes.Vehicle passenger4=org.car2x.veins.subprojects.simulator.nodes.Vehicle *=org.car2x.veins.subprojects.simulator.nodes.NonPartakingVehicle\""
param *.rsuPlacer.rows 20
param *.rsuPlacer.cols 20
param *.rsuPlacer.rsuDisplayString "\"i=veins/node/cone;is=vs\""
param *.node2[*].app.blockchain.validatorModule "\"org.car2x.veins.subprojects.simulator.modules.validation.PlausibilityValidation\""
param *.node2[*].app.generatorModule "\"org.car2x.veins.subprojects.simulator.modules.transactions.TrafficJamGenerator\""
param *.node2[*].app.transactionGenerator.transactionsPerTurn 2
param *.**.app.blockchain.statusUpdateModule "\"org.car2x.veins.subprojects.simulator.modules.status.FixedReward\""
param *.**.app.transactionGenerator.maxOffset 40m
param *.**.app.transactionGenerator.minOffset 30m
param *.manager.vehicleCap 1500
param *.manager.ratio 0
param *.**.app.transactionGenerator.range 15m
param *.**.wave.range 15m
param *.logger.logFile "\"results/MoST-MaliciousCoordinated-2048--2.blockchain.log\""
param *.addressTable.logFile "\"results/MoST-MaliciousCoordinated-2048--2.addresses.log\""
param *.maliciousNodes 0
param *.nodePlacer.x 500
param *.nodePlacer.y 500
param *.**.app.blockchain.statusUpdater.maxReward 4096
param *.**.app.blockchain.statusUpdater.reward 256
param *.**.app.blockchain.statusUpdater.penalty 512
param *.**.app.blockchain.statusUpdater.startingReward 2048
param *.**.app.blockchain.blockValidator.decayRate 0.3
param *.**.app.blockchain.blockValidator.varianceWeight 0.67
param *.**.app.blockchain.blockValidator.maxConflicts 2
param *.**.app.blockchain.blockchain.storedChainLength 10
param *.**.app.blockchain.blockValidator.depth 3
param *.**.app.transactionPeriod 5s
param *.manager.secondModuleType "\"org.car2x.veins.subprojects.simulator.nodes.Vehicle\""
param *.manager.ratio 0.1
param *.rsuPlacer.rows 16
param *.rsuPlacer.cols 16
param *.rsuPlacer.rsuDisplayString "\"i=veins/node/cone;is=vs\""
param *.**.app.blockchain.statusUpdater.rsuStartingReward 2048
param *.**.app.blockchain.statusUpdater.startingReward 1024
param *.**.app.blockchain.statusUpdater.reward 512
param *.**.app.blockchain.statusUpdater.penalty 2048
param *.**.app.blockchain.statusUpdater.maxReward 4096
param *.**.app.blockchain.consensusModule "\"org.car2x.veins.subprojects.simulator.modules.consensus.BaseVotingModel\""
param *.**.app.blockchain.filterModule "\"org.car2x.veins.subprojects.simulator.modules.blocks.SimpleFilter\""
param *.**.app.blockchain.harvesterModule "\"org.car2x.veins.subprojects.simulator.modules.harvesting.DeterministicHarvester\""
param *.**.app.blockchain.statusUpdateModule "\"org.car2x.veins.subprojects.simulator.modules.status.FixedReward\""
param *.**.app.blockchain.consensusModel.harvesters 3
param *.**.app.blockchain.consensusModel.faultTolerance 6
param *.**.app.blockchain.consensusModel.timeout 3s
param *.**.app.transactionPeriod 1s
param *.**.app.transactionGenerator.range 40m
param *.**.app.applicationModule "\"org.car2x.veins.subprojects.simulator.modules.application.TestApplication\""
param *.node[*].app.blockchain.validatorModule "\"org.car2x.veins.subprojects.simulator.modules.validation.PlausibilityValidation\""
param *.node[*].app.generatorModule "\"org.car2x.veins.subprojects.simulator.modules.transactions.ValidTransactionGenerator\""
param *.node2[*].app.blockchain.validatorModule "\"org.car2x.veins.subprojects.simulator.modules.validation.SelfishValidator\""
param *.node2[*].app.generatorModule "\"org.car2x.veins.subprojects.simulator.modules.transactions.MimicTransactionGenerator\""
param *.node[*].veinsmobility.x 0
param *.node[*].veinsmobility.y 0
param *.node[*].veinsmobility.z 0
param *.node[*].veinsmobility.setHostSpeed false
param *.node[*].veinsmobility.accidentCount 0
param *.node[*].veinsmobility.accidentStart 0s
param *.node[*].veinsmobility.accidentDuration 0s
param *.node2[*].veinsmobility.x 0
param *.node2[*].veinsmobility.y 0
param *.node2[*].veinsmobility.z 0
param *.node2[*].veinsmobility.setHostSpeed false
param *.node2[*].veinsmobility.accidentCount 0
param *.node2[*].veinsmobility.accidentStart 0s
param *.node2[*].veinsmobility.accidentDuration 0s
param *.RSU[*].app.blockchain.validatorModule "\"org.car2x.veins.subprojects.simulator.modules.validation.PlausibilityValidation\""
param *.RSU[*].app.generatorModule "\"org.car2x.veins.subprojects.simulator.modules.transactions.ValidTransactionGenerator\""
param *.RSU[*].app.blockchain.blockchain.downloadAtStart false
param *.playgroundSizeX 2500m
param *.playgroundSizeY 2500m
param *.playgroundSizeZ 50m
param *.annotations.draw true
param *.obstacles.obstacles "xmldoc(\"config.xml\", \"//AnalogueModel[@type='SimpleObstacleShadowing']/obstacles\")"
param *.manager.updateInterval 1s
param *.manager.host "\"localhost\""
param *.manager.port 9999
param *.manager.autoShutdown true
param *.manager.launchConfig "xmldoc(\"erlangen.launchd.xml\")"
param *.manager.moduleType "\"org.car2x.veins.subprojects.simulator.nodes.Vehicle\""
param *.manager.secondModuleType "\"org.car2x.veins.subprojects.simulator.nodes.Vehicle\""
param *.manager.ratio 0.0
param *.connectionManager.sendDirect true
param *.connectionManager.maxInterfDist 2600m
param *.connectionManager.drawMaxIntfDist false
param *.**.wave.range 40m
param *.**.wave.speed 6Gbps
param *.**.inet.speed 10Gbps
param *.**.app.blockchain.blocksize 50000
param *.**.app.blockchain.blocktime 60s
param *.**.app.blockchain.blockValidator.maxSpeed 130kmph
param *.logger.logFile "\"results/MoST-MaliciousCoordinated-2.blockchain.log\""
param *.addressTable.logFile "\"results/MoST-MaliciousCoordinated-2.addresses.log\""
param *.RSU[*].app.blockchain.blockchain.downloadAtStart false
param *.**.app.blockchain.consensusModule "\"org.car2x.veins.subprojects.simulator.modules.consensus.TrustedEnvironment\""
param *.**.app.blockchain.filterModule "\"org.car2x.veins.subprojects.simulator.modules.blocks.SimpleFilter\""
param *.**.app.blockchain.harvesterModule "\"org.car2x.veins.subprojects.simulator.modules.harvesting.DeterministicHarvester\""
param *.**.app.blockchain.statusUpdateModule "\"org.car2x.veins.subprojects.simulator.modules.status.FixedReward\""
param *.**.app.blockchain.validatorModule "\"org.car2x.veins.subprojects.simulator.modules.validation.PlausibilityValidation\""
param *.**.app.generatorModule "\"org.car2x.veins.subprojects.simulator.modules.transactions.ValidTransactionGenerator\""
param *.**.app.applicationModule "\"org.car2x.veins.subprojects.simulator.modules.application.TestApplication\""
param *.**.app.transactionPeriod 1s
param *.**.app.transactionGenerator.range 40m
param *.**.app.blockchain.consensusModel.faultTolerance 6
param *.**.app.blockchain.consensusModel.timeout 2s
param *.node[*].veinsmobility.x 0
param *.node[*].veinsmobility.y 0
param *.node[*].veinsmobility.z 0
param *.node[*].veinsmobility.setHostSpeed false
param *.node[*].veinsmobility.accidentCount 0
param *.node[*].veinsmobility.accidentStart 0s
param *.node[*].veinsmobility.accidentDuration 0s

scalar CoordinatedAttackScenario.node[451].veinsmobility startTime 20000
scalar CoordinatedAttackScenario.node[451].veinsmobility totalTime 5.5
scalar CoordinatedAttackScenario.node[451].veinsmobility stopTime 20005.75
scalar CoordinatedAttackScenario.node[451].veinsmobility minSpeed 14.53651088936
scalar CoordinatedAttackScenario.node[451].veinsmobility maxSpeed 14.837763627606
scalar CoordinatedAttackScenario.node[451].veinsmobility totalDistance 80.690639487941
scalar CoordinatedAttackScenario.node[451].veinsmobility totalCO2Emission 14.557635142599
scalar CoordinatedAttackScenario.node[460].veinsmobility startTime 20000
scalar CoordinatedAttackScenario.node[460].veinsmobility totalTime 5.5
scalar CoordinatedAttackScenario.node[460].veinsmobility stopTime 20005.75
scalar CoordinatedAttackScenario.node[460].veinsmobility minSpeed 3.6759764108674
scalar CoordinatedAttackScenario.node[460].veinsmobility maxSpeed 12.23204830647
scalar CoordinatedAttackScenario.node[460].veinsmobility totalDistance 39.986492500583
scalar CoordinatedAttackScenario.node[460].veinsmobility totalCO2Emission 24.907923568236
scalar CoordinatedAttackScenario.node[553].veinsmobility startTime 20000
scalar CoordinatedAttackScenario.node[553].veinsmobility totalTime 12.25
scalar CoordinatedAttackScenario.node[553].veinsmobility stopTime 20012.5
scalar CoordinatedAttackScenario.node[553].veinsmobility minSpeed 5.7141422174991
scalar CoordinatedAttackScenario.node[553].veinsmobility maxSpeed 15.539733692581
scalar CoordinatedAttackScenario.node[553].veinsmobility totalDistance 158.31597380136
scalar CoordinatedAttackScenario.node[553].veinsmobility totalCO2Emission 47.884646089694
scalar CoordinatedAttackScenario.node[359].veinsmobility startTime 20000
scalar CoordinatedAttackScenario.node[359].veinsmobility totalTime 16
scalar CoordinatedAttackScenario.node[359].veinsmobility stopTime 20016.25
scalar CoordinatedAttackScenario.node[359].veinsmobility minSpeed 13.503404909843
scalar CoordinatedAttackScenario.node[359].veinsmobility maxSpeed 13.823409870306
scalar CoordinatedAttackScenario.node[359].veinsmobility totalDistance 217.06393620099
scalar CoordinatedAttackScenario.node[359].veinsmobility totalCO2Emission 36.353182071763
scalar CoordinatedAttackScenario.node[499].veinsmobility startTime 20000
scalar CoordinatedAttackScenario.node[499].veinsmobility totalTime 23
scalar CoordinatedAttackScenario.node[499].veinsmobility stopTime 20023.25
scalar CoordinatedAttackScenario.node[499].veinsmobility minSpeed 4.0400563627731
scalar CoordinatedAttackScenario.node[499].veinsmobility maxSpeed 14.678050502691
scalar CoordinatedAttackScenario.node[499].veinsmobility totalDistance 273.56469294866
scalar CoordinatedAttackScenario.node[499].veinsmobility totalCO2Emission 78.669893024624
scalar CoordinatedAttackScenario.node[399].veinsmobility startTime 20000
scalar CoordinatedAttackScenario.node[399].veinsmobility totalTime 25.25
scalar CoordinatedAttackScenario.node[399].veinsmobility stopTime 20025.5
scalar CoordinatedAttackScenario.node[399].veinsmobility minSpeed 13.53635725693
scalar CoordinatedAttackScenario.node[399].veinsmobility maxSpeed 13.789455248673
scalar CoordinatedAttackScenario.node[399].veinsmobility totalDistance 343.55691286237
scalar CoordinatedAttackScenario.node[399].veinsmobility totalCO2Emission 56.024672873281
scalar CoordinatedAttackScenario.node[551].veinsmobility startTime 20000
scalar CoordinatedAttackScenario.node[551].veinsmobility totalTime 27.5
scalar CoordinatedAttackScenario.node[551].veinsmobility stopTime 20027.75
scalar CoordinatedAttackScenario.node[551].veinsmobility minSpeed 2.4249164972776
scalar CoordinatedAttackScenario.node[551].veinsmobility maxSpeed 13.619927032077
scalar CoordinatedAttackScenario.node[551].veinsmobility totalDistance 179.93697267786
scalar CoordinatedAttackScenario.node[551].veinsmobility totalCO2Emission 75.310341807764
scalar CoordinatedAttackScenario.node[343].veinsmobility startTime 20000
scalar CoordinatedAttackScenario.node[343].veinsmobility totalTime 29
scalar CoordinatedAttackScenario.node[343].veinsmobility stopTime 20029.25
scalar CoordinatedAttackScenario.node[343].veinsmobility minSpeed 14.602300522137
scalar CoordinatedAttackScenario.node[343].veinsmobility maxSpeed 14.913550796201
scalar CoordinatedAttackScenario.node[343].veinsmobility totalDistance 426.60119066146
scalar CoordinatedAttackScenario.node[343].veinsmobility totalCO2Emission 68.190822992738
scalar CoordinatedAttackScenario.node[421].veinsmobility startTime 20000
scalar CoordinatedAttackScenario.node[421].veinsmobility totalTime 29.75
scalar CoordinatedAttackScenario.node[421].veinsmobility stopTime 20030
scalar CoordinatedAttackScenario.node[421].veinsmobility minSpeed 12.488332327222
scalar CoordinatedAttackScenario.node[421].veinsmobility maxSpeed 12.649722316494
scalar CoordinatedAttackScenario.node[421].veinsmobility totalDistance 373.03942830867
scalar CoordinatedAttackScenario.node[421].veinsmobility totalCO2Emission 57.296628654714
scalar CoordinatedAttackScenario.node[426].veinsmobility startTime 20000
scalar CoordinatedAttackScenario.node[426].veinsmobility totalTime 30.5
scalar CoordinatedAttackScenario.node[426].veinsmobility stopTime 20030.75
scalar CoordinatedAttackScenario.node[426].veinsmobility minSpeed 1.3366897302366
scalar CoordinatedAttackScenario.node[426].veinsmobility maxSpeed 12.779060940392
scalar CoordinatedAttackScenario.node[426].veinsmobility totalDistance 192.30101606315
scalar CoordinatedAttackScenario.node[426].veinsmobility totalCO2Emission 96.305358479052
scalar CoordinatedAttackScenario.node[379].veinsmobility startTime 20000
scalar CoordinatedAttackScenario.node[379].veinsmobility totalTime 30.5
scalar CoordinatedAttackScenario.node[379].veinsmobility stopTime 20030.75
scalar CoordinatedAttackScenario.node[379].veinsmobility minSpeed 14.498835719359
scalar CoordinatedAttackScenario.node[379].veinsmobility maxSpeed 14.657761846256
scalar CoordinatedAttackScenario.node[379].veinsmobility totalDistance 443.6370990589
scalar CoordinatedAttackScenario.node[379].veinsmobility totalCO2Emission 65.245443718414
scalar CoordinatedAttackScenario.node[385].veinsmobility startTime 20000
scalar CoordinatedAttackScenario.node[385].veinsmobility totalTime 33.75
scalar CoordinatedAttackScenario.node[385].veinsmobility stopTime 20034
scalar CoordinatedAttackScenario.node[385].veinsmobility minSpeed 0
scalar CoordinatedAttackScenario.node[385].veinsmobility maxSpeed 15.845143719933
scalar CoordinatedAttackScenario.node[385].veinsmobility totalDistance 323.85922219247
scalar CoordinatedAttackScenario.node[385].veinsmobility totalCO2Emission 92.783395695102
scalar CoordinatedAttackScenario.node[548].veinsmobility startTime 20000
scalar CoordinatedAttackScenario.node[548].veinsmobility totalTime 35.25
scalar CoordinatedAttackScenario.node[548].veinsmobility stopTime 20035.5
scalar CoordinatedAttackScenario.node[548].veinsmobility minSpeed 2.0524620149713
scalar CoordinatedAttackScenario.node[548].veinsmobility maxSpeed 11.721683537701
scalar CoordinatedAttackScenario.node[548].veinsmobility totalDistance 192.74241265803
scalar CoordinatedAttackScenario.node[548].veinsmobility totalCO2Emission 87.158433982408
scalar CoordinatedAttackScenario.node[326].veinsmobility startTime 20000
scalar CoordinatedAttackScenario.node[326].veinsmobility totalTime 52.25
scalar CoordinatedAttackScenario.node[326].veinsmobility stopTime 20052.5
scalar CoordinatedAttackScenario.node[326].veinsmobility minSpeed 11.84488448357
scalar CoordinatedAttackScenario.node[326].veinsmobility maxSpeed 12.103141950847
scalar CoordinatedAttackScenario.node[326].veinsmobility totalDistance 622.13695196867
scalar CoordinatedAttackScenario.node[326].veinsmobility totalCO2Emission 104.67426564708
scalar CoordinatedAttackScenario.node[347].veinsmobility startTime 20000
scalar CoordinatedAttackScenario.node[347].veinsmobility totalTime 56
scalar CoordinatedAttackScenario.node[347].veinsmobility stopTime 20056.25
scalar CoordinatedAttackScenario.node[347].veinsmobility minSpeed 2.4203531256954
scalar CoordinatedAttackScenario.node[347].veinsmobility maxSpeed 13.805288312971
scalar CoordinatedAttackScenario.node[347].veinsmobility totalDistance 642.64128158673
scalar CoordinatedAttackScenario.node[347].veinsmobility totalCO2Emission 146.31952302476
scalar CoordinatedAttackScenario.node[462].veinsmobility startTime 20000
scalar CoordinatedAttackScenario.node[462].veinsmobility totalTime 58
scalar CoordinatedAttackScenario.node[462].veinsmobility stopTime 20058.25
scalar CoordinatedAttackScenario.node[462].veinsmobility minSpeed 0
scalar CoordinatedAttackScenario.node[462].veinsmobility maxSpeed 12.676189517699
scalar CoordinatedAttackScenario.node[462].veinsmobility totalDistance 384.76612553175
scalar CoordinatedAttackScenario.node[462].veinsmobility totalCO2Emission 118.98847601253
scalar CoordinatedAttackScenario.node[361].veinsmobility startTime 20000
scalar CoordinatedAttackScenario.node[361].veinsmobility totalTime 59.5
scalar CoordinatedAttackScenario.node[361].veinsmobility stopTime 20059.75
scalar CoordinatedAttackScenario.node[361].veinsmobility minSpeed 9.3428845085051
scalar CoordinatedAttackScenario.node[361].veinsmobility maxSpeed 14.381435116288
scalar CoordinatedAttackScenario.node[361].veinsmobility totalDistance 828.6340958767
scalar CoordinatedAttackScenario.node[361].veinsmobility totalCO2Emission 137.08518387499
scalar CoordinatedAttackScenario.node[392].veinsmobility startTime 20000
scalar CoordinatedAttackScenario.node[392].veinsmobility totalTime 60.5
scalar CoordinatedAttackScenario.node[392].veinsmobility stopTime 20060.75
scalar CoordinatedAttackScenario.node[392].veinsmobility minSpeed 13.644216386229
scalar CoordinatedAttackScenario.node[392].veinsmobility maxSpeed 13.945234269332
scalar CoordinatedAttackScenario.node[392].veinsmobility totalDistance 832.99194549602
scalar CoordinatedAttackScenario.node[392].veinsmobility totalCO2Emission 132.74228993431
scalar CoordinatedAttackScenario.node[482].veinsmobility startTime 20000
scalar CoordinatedAttackScenario.node[482].veinsmobility totalTime 60.75
scalar CoordinatedAttackScenario.node[482].veinsmobility stopTime 20061
scalar CoordinatedAttackScenario.node[482].veinsmobility minSpeed 1.4116755101511
scalar CoordinatedAttackScenario.node[482].veinsmobility maxSpeed 15.71566457022
scalar CoordinatedAttackScenario.node[482].veinsmobility totalDistance 743.65045735702
scalar CoordinatedAttackScenario.node[482].veinsmobility totalCO2Emission 201.70750504267
scalar CoordinatedAttackScenario.node[478].veinsmobility startTime 20000
scalar CoordinatedAttackScenario.node[478].veinsmobility totalTime 63.25
scalar CoordinatedAttackScenario.node[478].veinsmobility stopTime 20063.5
scalar CoordinatedAttackScenario.node[478].veinsmobility minSpeed 0
scalar CoordinatedAttackScenario.node[478].veinsmobility maxSpeed 14.386754868052
scalar CoordinatedAttackScenario.node[478].veinsmobility totalDistance 456.65568160782
scalar CoordinatedAttackScenario.node[478].veinsmobility totalCO2Emission 175.55956820347
scalar CoordinatedAttackScenario.node[489].veinsmobility startTime 20000
scalar CoordinatedAttackScenario.node[489].veinsmobility totalTime 71.75
scalar CoordinatedAttackScenario.node[489].veinsmobility stopTime 20072
scalar CoordinatedAttackScenario.node[489].veinsmobility minSpeed 0
scalar CoordinatedAttackScenario.node[489].veinsmobility maxSpeed 13.928214911798
scalar CoordinatedAttackScenario.node[489].veinsmobility totalDistance 411.20928894262
scalar CoordinatedAttackScenario.node[489].veinsmobility totalCO2Emission 164.90850165122
scalar CoordinatedAttackScenario.node[318].veinsmobility startTime 20000
scalar CoordinatedAttackScenario.node[318].veinsmobility totalTime 72.75
scalar CoordinatedAttackScenario.node[318].veinsmobility stopTime 20073
scalar CoordinatedAttackScenario.node[318].veinsmobility minSpeed 15.590894236705
scalar CoordinatedAttackScenario.node[318].veinsmobility maxSpeed 15.817165155762
scalar CoordinatedAttackScenario.node[318].veinsmobility totalDistance 1139.0200338317
scalar CoordinatedAttackScenario.node[318].veinsmobility totalCO2Emission 170.7214316567
scalar CoordinatedAttackScenario.node[505].veinsmobility startTime 20000
scalar CoordinatedAttackScenario.node[505].veinsmobility totalTime 79.75
scalar CoordinatedAttackScenario.node[505].veinsmobility stopTime 20080
scalar CoordinatedAttackScenario.node[505].veinsmobility minSpeed 2.4650185775543
scalar CoordinatedAttackScenario.node[505].veinsmobility maxSpeed 13.316032100049
scalar CoordinatedAttackScenario.node[505].veinsmobility totalDistance 945.19767588994
scalar CoordinatedAttackScenario.node[505].veinsmobility totalCO2Emission 153.98031137957
scalar CoordinatedAttackScenario.node[508].veinsmobility startTime 20000
scalar CoordinatedAttackScenario.node[508].veinsmobility totalTime 82.25
scalar CoordinatedAttackScenario.node[508].veinsmobility stopTime 20082.5
scalar CoordinatedAttackScenario.node[508].veinsmobility minSpeed 1.3601943896413
scalar CoordinatedAttackScenario.node[508].veinsmobility maxSpeed 13.253392651547
scalar CoordinatedAttackScenario.node[508].veinsmobility totalDistance 611.63024662268
scalar CoordinatedAttackScenario.node[508].veinsmobility totalCO2Emission 234.19301218689
scalar CoordinatedAttackScenario.node[439].veinsmobility startTime 20000
scalar CoordinatedAttackScenario.node[439].veinsmobility totalTime 87
scalar CoordinatedAttackScenario.node[439].veinsmobility stopTime 20087.25
scalar CoordinatedAttackScenario.node[439].veinsmobility minSpeed 12.886716127825
scalar CoordinatedAttackScenario.node[439].veinsmobility maxSpeed 13.371275745984
scalar CoordinatedAttackScenario.node[439].veinsmobility totalDistance 1138.7561016619
scalar CoordinatedAttackScenario.node[439].veinsmobility totalCO2Emission 202.63559385228
scalar CoordinatedAttackScenario.node[301].veinsmobility startTime 20000
scalar CoordinatedAttackScenario.node[301].veinsmobility totalTime 90.25
scalar CoordinatedAttackScenario.node[301].veinsmobility stopTime 20090.5
scalar CoordinatedAttackScenario.node[301].veinsmobility minSpeed 5.845723802241
scalar CoordinatedAttackScenario.node[301].veinsmobility maxSpeed 19.632682011463
scalar CoordinatedAttackScenario.node[301].veinsmobility totalDistance 1367.5299614374
scalar CoordinatedAttackScenario.node[301].veinsmobility totalCO2Emission 339.13450684618
scalar CoordinatedAttackScenario.node[442].veinsmobility startTime 20000
scalar CoordinatedAttackScenario.node[442].veinsmobility totalTime 91
scalar CoordinatedAttackScenario.node[442].veinsmobility stopTime 20091.25
scalar CoordinatedAttackScenario.node[442].veinsmobility minSpeed 13.037932780161
scalar CoordinatedAttackScenario.node[442].veinsmobility maxSpeed 13.20008772405
scalar CoordinatedAttackScenario.node[442].veinsmobility totalDistance 1191.2414415378
scalar CoordinatedAttackScenario.node[442].veinsmobility totalCO2Emission 181.93238198099
scalar CoordinatedAttackScenario.node[515].veinsmobility startTime 20000
scalar CoordinatedAttackScenario.node[515].veinsmobility totalTime 98
scalar CoordinatedAttackScenario.node[515].veinsmobility stopTime 20098.25
scalar CoordinatedAttackScenario.node[515].veinsmobility minSpeed 2.4595221375612
scalar CoordinatedAttackScenario.node[515].veinsmobility maxSpeed 12.102345634747
scalar CoordinatedAttackScenario.node[515].veinsmobility totalDistance 991.99296788396
scalar CoordinatedAttackScenario.node[515].veinsmobility totalCO2Emission 222.99279451311
scalar CoordinatedAttackScenario.node[474].veinsmobility startTime 20000
scalar CoordinatedAttackScenario.node[474].veinsmobility totalTime 101.75
scalar CoordinatedAttackScenario.node[474].veinsmobility stopTime 20102
scalar CoordinatedAttackScenario.node[474].veinsmobility minSpeed 1.5178875026305
scalar CoordinatedAttackScenario.node[474].veinsmobility maxSpeed 15.383752139234
scalar CoordinatedAttackScenario.node[474].veinsmobility totalDistance 1196.7230573733
scalar CoordinatedAttackScenario.node[474].veinsmobility totalCO2Emission 302.56938684599
scalar CoordinatedAttackScenario.node[314].veinsmobility startTime 20000
scalar CoordinatedAttackScenario.node[314].veinsmobility totalTime 102
scalar CoordinatedAttackScenario.node[314].veinsmobility stopTime 20102.25
scalar CoordinatedAttackScenario.node[314].veinsmobility minSpeed 15.554978893916
scalar CoordinatedAttackScenario.node[314].veinsmobility maxSpeed 15.814030334656
scalar CoordinatedAttackScenario.node[314].veinsmobility totalDistance 1593.0014644601
scalar CoordinatedAttackScenario.node[314].veinsmobility totalCO2Emission 246.7180105797
scalar CoordinatedAttackScenario.node[488].veinsmobility startTime 20000
scalar CoordinatedAttackScenario.node[488].veinsmobility totalTime 110
scalar CoordinatedAttackScenario.node[488].veinsmobility stopTime 20110.25
scalar CoordinatedAttackScenario.node[488].veinsmobility minSpeed 0.39067772683322
scalar CoordinatedAttackScenario.node[488].veinsmobility maxSpeed 12.174194430274
scalar CoordinatedAttackScenario.node[488].veinsmobility totalDistance 1094.6095456311
scalar CoordinatedAttackScenario.node[488].veinsmobility totalCO2Emission 260.76726873324
scalar CoordinatedAttackScenario.node[546].veinsmobility startTime 20000
scalar CoordinatedAttackScenario.node[546].veinsmobility totalTime 110.25
scalar CoordinatedAttackScenario.node[546].veinsmobility stopTime 20110.5
scalar CoordinatedAttackScenario.node[546].veinsmobility minSpeed 2.2022200997735
scalar CoordinatedAttackScenario.node[546].veinsmobility maxSpeed 12.74201780228
scalar CoordinatedAttackScenario.node[546].veinsmobility totalDistance 1026.0957859147
scalar CoordinatedAttackScenario.node[546].veinsmobility totalCO2Emission 280.67125165528
scalar CoordinatedAttackScenario.node[302].veinsmobility startTime 20000
scalar CoordinatedAttackScenario.node[302].veinsmobility totalTime 113
scalar CoordinatedAttackScenario.node[302].veinsmobility stopTime 20113.25
scalar CoordinatedAttackScenario.node[302].veinsmobility minSpeed 0
scalar CoordinatedAttackScenario.node[302].veinsmobility maxSpeed 19.770328710148
scalar CoordinatedAttackScenario.node[302].veinsmobility totalDistance 1641.867971984
scalar CoordinatedAttackScenario.node[302].veinsmobility totalCO2Emission 322.98620827285
scalar CoordinatedAttackScenario.node[547].veinsmobility startTime 20000
scalar CoordinatedAttackScenario.node[547].veinsmobility totalTime 117.75
scalar CoordinatedAttackScenario.node[547].veinsmobility stopTime 20118
scalar CoordinatedAttackScenario.node[547].veinsmobility minSpeed 2.1538647982864
scalar CoordinatedAttackScenario.node[547].veinsmobility maxSpeed 13.901274584176
scalar CoordinatedAttackScenario.node[547].veinsmobility totalDistance 1304.5850652226
scalar CoordinatedAttackScenario.node[547].veinsmobility totalCO2Emission 340.1784731765
scalar CoordinatedAttackScenario.node[401].veinsmobility startTime 20000
scalar CoordinatedAttackScenario.node[401].veinsmobility totalTime 117.75
scalar CoordinatedAttackScenario.node[401].veinsmobility stopTime 20118
scalar CoordinatedAttackScenario.node[401].veinsmobility minSpeed 0
scalar CoordinatedAttackScenario.node[401].veinsmobility maxSpeed 15.981028775518
scalar CoordinatedAttackScenario.node[401].veinsmobility totalDistance 1409.2874976329
scalar CoordinatedAttackScenario.node[401].veinsmobility totalCO2Emission 303.48074984152
scalar CoordinatedAttackScenario.node[395].veinsmobility startTime 20000
scalar CoordinatedAttackScenario.node[395].veinsmobility totalTime 119
scalar CoordinatedAttackScenario.node[395].veinsmobility stopTime 20119.25
scalar CoordinatedAttackScenario.node[395].veinsmobility minSpeed 3.8818686279356
scalar CoordinatedAttackScenario.node[395].veinsmobility maxSpeed 14.64232320079
scalar CoordinatedAttackScenario.node[395].veinsmobility totalDistance 1625.0965154241
scalar CoordinatedAttackScenario.node[395].veinsmobility totalCO2Emission 286.71587510825
scalar CoordinatedAttackScenario.node[363].veinsmobility startTime 20000
scalar CoordinatedAttackScenario.node[363].veinsmobility totalTime 120
scalar CoordinatedAttackScenario.node[363].veinsmobility stopTime 20120.25
scalar CoordinatedAttackScenario.node[363].veinsmobility minSpeed 3.9878230186054
scalar CoordinatedAttackScenario.node[363].veinsmobility maxSpeed 14.689349077224
scalar CoordinatedAttackScenario.node[363].veinsmobility totalDistance 1666.584562199
scalar CoordinatedAttackScenario.node[363].veinsmobility totalCO2Emission 271.70551050701
scalar CoordinatedAttackScenario.node[312].veinsmobility startTime 20000
scalar CoordinatedAttackScenario.node[312].veinsmobility totalTime 130.75
scalar CoordinatedAttackScenario.node[312].veinsmobility stopTime 20131
scalar CoordinatedAttackScenario.node[312].veinsmobility minSpeed 3.9524523960799
scalar CoordinatedAttackScenario.node[312].veinsmobility maxSpeed 15.327969142213
scalar CoordinatedAttackScenario.node[312].veinsmobility totalDistance 1830.8386603803
scalar CoordinatedAttackScenario.node[312].veinsmobility totalCO2Emission 345.4338961131
scalar CoordinatedAttackScenario.node[493].veinsmobility startTime 20000
scalar CoordinatedAttackScenario.node[493].veinsmobility totalTime 132.25
scalar CoordinatedAttackScenario.node[493].veinsmobility stopTime 20132.5
scalar CoordinatedAttackScenario.node[493].veinsmobility minSpeed 0
scalar CoordinatedAttackScenario.node[493].veinsmobility maxSpeed 11.438876953597
scalar CoordinatedAttackScenario.node[493].veinsmobility totalDistance 1099.8565705778
scalar CoordinatedAttackScenario.node[493].veinsmobility totalCO2Emission 282.05985661249
scalar CoordinatedAttackScenario.node[364].veinsmobility startTime 20000
scalar CoordinatedAttackScenario.node[364].veinsmobility totalTime 134
scalar CoordinatedAttackScenario.node[364].veinsmobility stopTime 20134.25
scalar CoordinatedAttackScenario.node[364].veinsmobility minSpeed 0
scalar CoordinatedAttackScenario.node[364].veinsmobility maxSpeed 13.740881585377
scalar CoordinatedAttackScenario.node[364].veinsmobility totalDistance 1643.8307912963
scalar CoordinatedAttackScenario.node[364].veinsmobility totalCO2Emission 316.83799275245
scalar CoordinatedAttackScenario.node[365].veinsmobility startTime 20000
scalar CoordinatedAttackScenario.node[365].veinsmobility totalTime 135
scalar CoordinatedAttackScenario.node[365].veinsmobility stopTime 20135.25
scalar CoordinatedAttackScenario.node[365].veinsmobility minSpeed 2.701479741157
scalar CoordinatedAttackScenario.node[365].veinsmobility maxSpeed 13.915111844036
scalar CoordinatedAttackScenario.node[365].veinsmobility totalDistance 1823.6524244877
scalar CoordinatedAttackScenario.node[365].veinsmobility totalCO2Emission 332.16890908607
scalar CoordinatedAttackScenario.node[464].veinsmobility startTime 20000
scalar CoordinatedAttackScenario.node[464].veinsmobility totalTime 136.75
scalar CoordinatedAttackScenario.node[464].veinsmobility stopTime 20137
scalar CoordinatedAttackScenario.node[464].veinsmobility minSpeed 0
scalar CoordinatedAttackScenario.node[464].veinsmobility maxSpeed 21.469893247268
scalar CoordinatedAttackScenario.node[464].veinsmobility totalDistance 1341.0965257438
scalar CoordinatedAttackScenario.node[464].veinsmobility totalCO2Emission 413.51253006277
scalar CoordinatedAttackScenario.node[454].veinsmobility startTime 20000
scalar CoordinatedAttackScenario.node[454].veinsmobility totalTime 140.5
scalar CoordinatedAttackScenario.node[454].veinsmobility stopTime 20140.75
scalar CoordinatedAttackScenario.node[454].veinsmobility minSpeed 0
scalar CoordinatedAttackScenario.node[454].veinsmobility maxSpeed 22.545877343381
scalar CoordinatedAttackScenario.node[454].veinsmobility totalDistance 777.9467488908
scalar CoordinatedAttackScenario.node[454].veinsmobility totalCO2Emission 322.03370033084
scalar CoordinatedAttackScenario.node[391].veinsmobility startTime 20000
scalar CoordinatedAttackScenario.node[391].veinsmobility totalTime 149
scalar CoordinatedAttackScenario.node[391].veinsmobility stopTime 20149.25
scalar CoordinatedAttackScenario.node[391].veinsmobility minSpeed 11.60321651781
scalar CoordinatedAttackScenario.node[391].veinsmobility maxSpeed 11.765496194168
scalar CoordinatedAttackScenario.node[391].veinsmobility totalDistance 1736.5597731617
scalar CoordinatedAttackScenario.node[391].veinsmobility totalCO2Emission 277.7713709909
scalar CoordinatedAttackScenario.node[408].veinsmobility startTime 20000
scalar CoordinatedAttackScenario.node[408].veinsmobility totalTime 152.25
scalar CoordinatedAttackScenario.node[408].veinsmobility stopTime 20152.5
scalar CoordinatedAttackScenario.node[408].veinsmobility minSpeed 0
scalar CoordinatedAttackScenario.node[408].veinsmobility maxSpeed 14.882874741502
scalar CoordinatedAttackScenario.node[408].veinsmobility totalDistance 1810.8491195059
scalar CoordinatedAttackScenario.node[408].veinsmobility totalCO2Emission 380.88283669112
scalar CoordinatedAttackScenario.node[434].veinsmobility startTime 20000
scalar CoordinatedAttackScenario.node[434].veinsmobility totalTime 154
scalar CoordinatedAttackScenario.node[434].veinsmobility stopTime 20154.25
scalar CoordinatedAttackScenario.node[434].veinsmobility minSpeed 1.5273183467177
scalar CoordinatedAttackScenario.node[434].veinsmobility maxSpeed 29.565806989412
scalar CoordinatedAttackScenario.node[434].veinsmobility totalDistance 2527.3959312719
scalar CoordinatedAttackScenario.node[434].veinsmobility totalCO2Emission 490.80020185705
scalar CoordinatedAttackScenario.node[470].veinsmobility startTime 20000
scalar CoordinatedAttackScenario.node[470].veinsmobility totalTime 154
scalar CoordinatedAttackScenario.node[470].veinsmobility stopTime 20154.25
scalar CoordinatedAttackScenario.node[470].veinsmobility minSpeed 1.9928797574911
scalar CoordinatedAttackScenario.node[470].veinsmobility maxSpeed 11.947255595715
scalar CoordinatedAttackScenario.node[470].veinsmobility totalDistance 1574.0671654308
scalar CoordinatedAttackScenario.node[470].veinsmobility totalCO2Emission 322.30322256438
scalar CoordinatedAttackScenario.node[327].veinsmobility startTime 20000
scalar CoordinatedAttackScenario.node[327].veinsmobility totalTime 159.5
scalar CoordinatedAttackScenario.node[327].veinsmobility stopTime 20159.75
scalar CoordinatedAttackScenario.node[327].veinsmobility minSpeed 1.3990757040402
scalar CoordinatedAttackScenario.node[327].veinsmobility maxSpeed 13.637028055029
scalar CoordinatedAttackScenario.node[327].veinsmobility totalDistance 1697.9906852394
scalar CoordinatedAttackScenario.node[327].veinsmobility totalCO2Emission 437.03839113394
scalar CoordinatedAttackScenario.node[309].veinsmobility startTime 20000
scalar CoordinatedAttackScenario.node[309].veinsmobility totalTime 161
scalar CoordinatedAttackScenario.node[309].veinsmobility stopTime 20161.25
scalar CoordinatedAttackScenario.node[309].veinsmobility minSpeed 1.2212281808413
scalar CoordinatedAttackScenario.node[309].veinsmobility maxSpeed 15.559226606654
scalar CoordinatedAttackScenario.node[309].veinsmobility totalDistance 2182.4565250236
scalar CoordinatedAttackScenario.node[309].veinsmobility totalCO2Emission 412.43173760231
scalar CoordinatedAttackScenario.node[556].veinsmobility startTime 20000
scalar CoordinatedAttackScenario.node[556].veinsmobility totalTime 170.5
scalar CoordinatedAttackScenario.node[556].veinsmobility stopTime 20170.75
scalar CoordinatedAttackScenario.node[556].veinsmobility minSpeed 0
scalar CoordinatedAttackScenario.node[556].veinsmobility maxSpeed 20.617399623386
scalar CoordinatedAttackScenario.node[556].veinsmobility totalDistance 1494.8869825312
scalar CoordinatedAttackScenario.node[556].veinsmobility totalCO2Emission 443.88492426837
scalar CoordinatedAttackScenario.node[337].veinsmobility startTime 20000
scalar CoordinatedAttackScenario.node[337].veinsmobility totalTime 173.25
scalar CoordinatedAttackScenario.node[337].veinsmobility stopTime 20173.5
scalar CoordinatedAttackScenario.node[337].veinsmobility minSpeed 1.6145234719919
scalar CoordinatedAttackScenario.node[337].veinsmobility maxSpeed 30.571306384262
scalar CoordinatedAttackScenario.node[337].veinsmobility totalDistance 3053.1947261811
scalar CoordinatedAttackScenario.node[337].veinsmobility totalCO2Emission 664.46871072709
scalar CoordinatedAttackScenario.node[490].veinsmobility startTime 20000
scalar CoordinatedAttackScenario.node[490].veinsmobility totalTime 174
scalar CoordinatedAttackScenario.node[490].veinsmobility stopTime 20174.25
scalar CoordinatedAttackScenario.node[490].veinsmobility minSpeed 0
scalar CoordinatedAttackScenario.node[490].veinsmobility maxSpeed 23.084928907372
scalar CoordinatedAttackScenario.node[490].veinsmobility totalDistance 1677.1194737463
scalar CoordinatedAttackScenario.node[490].veinsmobility totalCO2Emission 479.50236867326
scalar CoordinatedAttackScenario.node[306].veinsmobility startTime 20000
scalar CoordinatedAttackScenario.node[306].veinsmobility totalTime 177
scalar CoordinatedAttackScenario.node[306].veinsmobility stopTime 20177.25
scalar CoordinatedAttackScenario.node[306].veinsmobility minSpeed 0
scalar CoordinatedAttackScenario.node[306].veinsmobility maxSpeed 14.697604666747
scalar CoordinatedAttackScenario.node[306].veinsmobility totalDistance 1678.5998998096
scalar CoordinatedAttackScenario.node[306].veinsmobility totalCO2Emission 450.54621499824
scalar CoordinatedAttackScenario.node[525].veinsmobility startTime 20000
scalar CoordinatedAttackScenario.node[525].veinsmobility totalTime 179.25
scalar CoordinatedAttackScenario.node[525].veinsmobility stopTime 20179.5
scalar CoordinatedAttackScenario.node[525].veinsmobility minSpeed 1.0432825486098
scalar CoordinatedAttackScenario.node[525].veinsmobility maxSpeed 10.519490949413
scalar CoordinatedAttackScenario.node[525].veinsmobility totalDistance 1663.6417353558
scalar CoordinatedAttackScenario.node[525].veinsmobility totalCO2Emission 373.75526063903
scalar CoordinatedAttackScenario.node[513].veinsmobility startTime 20000
scalar CoordinatedAttackScenario.node[513].veinsmobility totalTime 182.25
scalar CoordinatedAttackScenario.node[513].veinsmobility stopTime 20182.5
scalar CoordinatedAttackScenario.node[513].veinsmobility minSpeed 0
scalar CoordinatedAttackScenario.node[513].veinsmobility maxSpeed 15.098502725963
scalar CoordinatedAttackScenario.node[513].veinsmobility totalDistance 1729.7174785816
scalar CoordinatedAttackScenario.node[513].veinsmobility totalCO2Emission 481.91004134331
scalar CoordinatedAttackScenario.node[466].veinsmobility startTime 20000
scalar CoordinatedAttackScenario.node[466].veinsmobility totalTime 183.25
scalar CoordinatedAttackScenario.node[466].veinsmobility stopTime 20183.5
scalar CoordinatedAttackScenario.node[466].veinsmobility minSpeed 0
scalar CoordinatedAttackScenario.node[466].veinsmobility maxSpeed 24.456515116817
scalar CoordinatedAttackScenario.node[466].veinsmobility totalDistance 2526.3518950138
scalar CoordinatedAttackScenario.node[466].veinsmobility totalCO2Emission 655.62615543269
scalar CoordinatedAttackScenario.node[366].veinsmobility startTime 20000
scalar CoordinatedAttackScenario.node[366].veinsmobility totalTime 185.75
scalar CoordinatedAttackScenario.node[366].veinsmobility stopTime 20186
scalar CoordinatedAttackScenario.node[366].veinsmobility minSpeed 5.9959189314407
scalar CoordinatedAttackScenario.node[366].veinsmobility maxSpeed 15.734293043036
scalar CoordinatedAttackScenario.node[366].veinsmobility totalDistance 2657.4451329984
scalar CoordinatedAttackScenario.node[366].veinsmobility totalCO2Emission 468.11228881245
scalar CoordinatedAttackScenario.node[355].veinsmobility startTime 20000
scalar CoordinatedAttackScenario.node[355].veinsmobility totalTime 189.25
scalar CoordinatedAttackScenario.node[355].veinsmobility stopTime 20189.5
scalar CoordinatedAttackScenario.node[355].veinsmobility minSpeed 1.6241432740557
scalar CoordinatedAttackScenario.node[355].veinsmobility maxSpeed 11.267414924742
scalar CoordinatedAttackScenario.node[355].veinsmobility totalDistance 2041.3611705923
scalar CoordinatedAttackScenario.node[355].veinsmobility totalCO2Emission 353.79988294535
scalar CoordinatedAttackScenario.node[522].veinsmobility startTime 20000
scalar CoordinatedAttackScenario.node[522].veinsmobility totalTime 191.25
scalar CoordinatedAttackScenario.node[522].veinsmobility stopTime 20191.5
scalar CoordinatedAttackScenario.node[522].veinsmobility minSpeed 2.2120040726916
scalar CoordinatedAttackScenario.node[522].veinsmobility maxSpeed 16.995380638928
scalar CoordinatedAttackScenario.node[522].veinsmobility totalDistance 2556.1509273065
scalar CoordinatedAttackScenario.node[522].veinsmobility totalCO2Emission 519.19745237157
scalar CoordinatedAttackScenario.node[457].veinsmobility startTime 20000
scalar CoordinatedAttackScenario.node[457].veinsmobility totalTime 199.25
scalar CoordinatedAttackScenario.node[457].veinsmobility stopTime 20199.5
scalar CoordinatedAttackScenario.node[457].veinsmobility minSpeed 1.9342036017429
scalar CoordinatedAttackScenario.node[457].veinsmobility maxSpeed 11.844736205441
scalar CoordinatedAttackScenario.node[457].veinsmobility totalDistance 2075.539361219
scalar CoordinatedAttackScenario.node[457].veinsmobility totalCO2Emission 471.39863804941
scalar CoordinatedAttackScenario.node[387].veinsmobility startTime 20000
scalar CoordinatedAttackScenario.node[387].veinsmobility totalTime 200
scalar CoordinatedAttackScenario.node[387].veinsmobility stopTime 20200.25
scalar CoordinatedAttackScenario.node[387].veinsmobility minSpeed 0
scalar CoordinatedAttackScenario.node[387].veinsmobility maxSpeed 19.568783674518
scalar CoordinatedAttackScenario.node[387].veinsmobility totalDistance 2717.0540461982
scalar CoordinatedAttackScenario.node[387].veinsmobility totalCO2Emission 534.33733118203
scalar CoordinatedAttackScenario.node[476].veinsmobility startTime 20000
scalar CoordinatedAttackScenario.node[476].veinsmobility totalTime 203.75
scalar CoordinatedAttackScenario.node[476].veinsmobility stopTime 20204
scalar CoordinatedAttackScenario.node[476].veinsmobility minSpeed 0
scalar CoordinatedAttackScenario.node[476].veinsmobility maxSpeed 13.036790452207
scalar CoordinatedAttackScenario.node[476].veinsmobility totalDistance 1579.0374930229
scalar CoordinatedAttackScenario.node[476].veinsmobility totalCO2Emission 422.34815019045
scalar CoordinatedAttackScenario.node[410].veinsmobility startTime 20000
scalar CoordinatedAttackScenario.node[410].veinsmobility totalTime 204.5
scalar CoordinatedAttackScenario.node[410].veinsmobility stopTime 20204.75
scalar CoordinatedAttackScenario.node[410].veinsmobility minSpeed 0
scalar CoordinatedAttackScenario.node[410].veinsmobility maxSpeed 15.140380232167
scalar CoordinatedAttackScenario.node[410].veinsmobility totalDistance 2169.6133935438
scalar CoordinatedAttackScenario.node[410].veinsmobility totalCO2Emission 406.4559913039
scalar CoordinatedAttackScenario.node[400].veinsmobility startTime 20000
scalar CoordinatedAttackScenario.node[400].veinsmobility totalTime 205.25
scalar CoordinatedAttackScenario.node[400].veinsmobility stopTime 20205.5
scalar CoordinatedAttackScenario.node[400].veinsmobility minSpeed 2.7912082554855
scalar CoordinatedAttackScenario.node[400].veinsmobility maxSpeed 12.928627903592
scalar CoordinatedAttackScenario.node[400].veinsmobility totalDistance 2473.8239744769
scalar CoordinatedAttackScenario.node[400].veinsmobility totalCO2Emission 438.01896471694
scalar CoordinatedAttackScenario.node[382].veinsmobility startTime 20000
scalar CoordinatedAttackScenario.node[382].veinsmobility totalTime 208.5
scalar CoordinatedAttackScenario.node[382].veinsmobility stopTime 20208.75
scalar CoordinatedAttackScenario.node[382].veinsmobility minSpeed 1.50310145544
scalar CoordinatedAttackScenario.node[382].veinsmobility maxSpeed 14.374669704111
scalar CoordinatedAttackScenario.node[382].veinsmobility totalDistance 2405.1665346038
scalar CoordinatedAttackScenario.node[382].veinsmobility totalCO2Emission 565.2940942655
scalar CoordinatedAttackScenario.node[404].veinsmobility startTime 20000
scalar CoordinatedAttackScenario.node[404].veinsmobility totalTime 213
scalar CoordinatedAttackScenario.node[404].veinsmobility stopTime 20213.25
scalar CoordinatedAttackScenario.node[404].veinsmobility minSpeed 1.4293263192014
scalar CoordinatedAttackScenario.node[404].veinsmobility maxSpeed 16.069655323691
scalar CoordinatedAttackScenario.node[404].veinsmobility totalDistance 2879.3136763962
scalar CoordinatedAttackScenario.node[404].veinsmobility totalCO2Emission 564.15508047874
scalar CoordinatedAttackScenario.node[487].veinsmobility startTime 20000
scalar CoordinatedAttackScenario.node[487].veinsmobility totalTime 214
scalar CoordinatedAttackScenario.node[487].veinsmobility stopTime 20214.25
scalar CoordinatedAttackScenario.node[487].veinsmobility minSpeed 0
scalar CoordinatedAttackScenario.node[487].veinsmobility maxSpeed 21.372748718671
scalar CoordinatedAttackScenario.node[487].veinsmobility totalDistance 2039.9637864713
scalar CoordinatedAttackScenario.node[487].veinsmobility totalCO2Emission 672.75823243939
scalar CoordinatedAttackScenario.node[494].veinsmobility startTime 20000
scalar CoordinatedAttackScenario.node[494].veinsmobility totalTime 215.5
scalar CoordinatedAttackScenario.node[494].veinsmobility stopTime 20215.75
scalar CoordinatedAttackScenario.node[494].veinsmobility minSpeed 0
scalar CoordinatedAttackScenario.node[494].veinsmobility maxSpeed 28.150791501769
scalar CoordinatedAttackScenario.node[494].veinsmobility totalDistance 2783.045294455
scalar CoordinatedAttackScenario.node[494].veinsmobility totalCO2Emission 800.67284609826
scalar CoordinatedAttackScenario.node[424].veinsmobility startTime 20000
scalar CoordinatedAttackScenario.node[424].veinsmobility totalTime 217.5
scalar CoordinatedAttackScenario.node[424].veinsmobility stopTime 20217.75
scalar CoordinatedAttackScenario.node[424].veinsmobility minSpeed 3.2857654093095
scalar CoordinatedAttackScenario.node[424].veinsmobility maxSpeed 14.190605161247
scalar CoordinatedAttackScenario.node[424].veinsmobility totalDistance 2895.7972287448
scalar CoordinatedAttackScenario.node[424].veinsmobility totalCO2Emission 537.56627631885
scalar CoordinatedAttackScenario.node[468].veinsmobility startTime 20000
scalar CoordinatedAttackScenario.node[468].veinsmobility totalTime 219.5
scalar CoordinatedAttackScenario.node[468].veinsmobility stopTime 20219.75
scalar CoordinatedAttackScenario.node[468].veinsmobility minSpeed 0
scalar CoordinatedAttackScenario.node[468].veinsmobility maxSpeed 12.777367695357
scalar CoordinatedAttackScenario.node[468].veinsmobility totalDistance 1766.3665009893
scalar CoordinatedAttackScenario.node[468].veinsmobility totalCO2Emission 511.87355014181
scalar CoordinatedAttackScenario.node[303].veinsmobility startTime 20000
scalar CoordinatedAttackScenario.node[303].veinsmobility totalTime 220.25
scalar CoordinatedAttackScenario.node[303].veinsmobility stopTime 20220.5
scalar CoordinatedAttackScenario.node[303].veinsmobility minSpeed 3.3884927607558
scalar CoordinatedAttackScenario.node[303].veinsmobility maxSpeed 14.615882129375
scalar CoordinatedAttackScenario.node[303].veinsmobility totalDistance 3048.1754435173
scalar CoordinatedAttackScenario.node[303].veinsmobility totalCO2Emission 530.89498590657
scalar CoordinatedAttackScenario.node[386].veinsmobility startTime 20000
scalar CoordinatedAttackScenario.node[386].veinsmobility totalTime 223
scalar CoordinatedAttackScenario.node[386].veinsmobility stopTime 20223.25
scalar CoordinatedAttackScenario.node[386].veinsmobility minSpeed 5.1656086589654
scalar CoordinatedAttackScenario.node[386].veinsmobility maxSpeed 14.005256806926
scalar CoordinatedAttackScenario.node[386].veinsmobility totalDistance 2841.8609294731
scalar CoordinatedAttackScenario.node[386].veinsmobility totalCO2Emission 475.18792208881
scalar CoordinatedAttackScenario.node[521].veinsmobility startTime 20000
scalar CoordinatedAttackScenario.node[521].veinsmobility totalTime 231.5
scalar CoordinatedAttackScenario.node[521].veinsmobility stopTime 20231.75
scalar CoordinatedAttackScenario.node[521].veinsmobility minSpeed 0
scalar CoordinatedAttackScenario.node[521].veinsmobility maxSpeed 14.32271395432
scalar CoordinatedAttackScenario.node[521].veinsmobility totalDistance 1656.3481887851
scalar CoordinatedAttackScenario.node[521].veinsmobility totalCO2Emission 541.60174815885
scalar CoordinatedAttackScenario.node[405].veinsmobility startTime 20000
scalar CoordinatedAttackScenario.node[405].veinsmobility totalTime 234.25
scalar CoordinatedAttackScenario.node[405].veinsmobility stopTime 20234.5
scalar CoordinatedAttackScenario.node[405].veinsmobility minSpeed 0
scalar CoordinatedAttackScenario.node[405].veinsmobility maxSpeed 13.05163239537
scalar CoordinatedAttackScenario.node[405].veinsmobility totalDistance 2197.8255014139
scalar CoordinatedAttackScenario.node[405].veinsmobility totalCO2Emission 532.38532341675
scalar CoordinatedAttackScenario.node[322].veinsmobility startTime 20000
scalar CoordinatedAttackScenario.node[322].veinsmobility totalTime 235.5
scalar CoordinatedAttackScenario.node[322].veinsmobility stopTime 20235.75
scalar CoordinatedAttackScenario.node[322].veinsmobility minSpeed 2.8866697583454
scalar CoordinatedAttackScenario.node[322].veinsmobility maxSpeed 13.633630428724
scalar CoordinatedAttackScenario.node[322].veinsmobility totalDistance 3008.9370532904
scalar CoordinatedAttackScenario.node[322].veinsmobility totalCO2Emission 540.65273453316
scalar CoordinatedAttackScenario.node[520].veinsmobility startTime 20000
scalar CoordinatedAttackScenario.node[520].veinsmobility totalTime 235.5
scalar CoordinatedAttackScenario.node[520].veinsmobility stopTime 20235.75
scalar CoordinatedAttackScenario.node[520].veinsmobility minSpeed 2.378589143394
scalar CoordinatedAttackScenario.node[520].veinsmobility maxSpeed 18.164699458883
scalar CoordinatedAttackScenario.node[520].veinsmobility totalDistance 2848.586547715
scalar CoordinatedAttackScenario.node[520].veinsmobility totalCO2Emission 583.61453182771
scalar CoordinatedAttackScenario.node[373].veinsmobility startTime 20000
scalar CoordinatedAttackScenario.node[373].veinsmobility totalTime 237.25
scalar CoordinatedAttackScenario.node[373].veinsmobility stopTime 20237.5
scalar CoordinatedAttackScenario.node[373].veinsmobility minSpeed 1.6065028349283
scalar CoordinatedAttackScenario.node[373].veinsmobility maxSpeed 15.495483809172
scalar CoordinatedAttackScenario.node[373].veinsmobility totalDistance 2911.2690283296
scalar CoordinatedAttackScenario.node[373].veinsmobility totalCO2Emission 659.20043711354
scalar CoordinatedAttackScenario.node[334].veinsmobility startTime 20000
scalar CoordinatedAttackScenario.node[334].veinsmobility totalTime 239.5
scalar CoordinatedAttackScenario.node[334].veinsmobility stopTime 20239.75
scalar CoordinatedAttackScenario.node[334].veinsmobility minSpeed 0.0057373412668369
scalar CoordinatedAttackScenario.node[334].veinsmobility maxSpeed 13.828644042009
scalar CoordinatedAttackScenario.node[334].veinsmobility totalDistance 2590.8623096759
scalar CoordinatedAttackScenario.node[334].veinsmobility totalCO2Emission 558.79666083185
scalar CoordinatedAttackScenario.node[414].veinsmobility startTime 20000
scalar CoordinatedAttackScenario.node[414].veinsmobility totalTime 243.25
scalar CoordinatedAttackScenario.node[414].veinsmobility stopTime 20243.5
scalar CoordinatedAttackScenario.node[414].veinsmobility minSpeed 2.8033599674548
scalar CoordinatedAttackScenario.node[414].veinsmobility maxSpeed 12.482166568389
scalar CoordinatedAttackScenario.node[414].veinsmobility totalDistance 2749.0646488931
scalar CoordinatedAttackScenario.node[414].veinsmobility totalCO2Emission 525.14344224011
scalar CoordinatedAttackScenario.node[310].veinsmobility startTime 20000
scalar CoordinatedAttackScenario.node[310].veinsmobility totalTime 243.75
scalar CoordinatedAttackScenario.node[310].veinsmobility stopTime 20244
scalar CoordinatedAttackScenario.node[310].veinsmobility minSpeed 1.6090002633076
scalar CoordinatedAttackScenario.node[310].veinsmobility maxSpeed 16.982880847663
scalar CoordinatedAttackScenario.node[310].veinsmobility totalDistance 3517.4655522558
scalar CoordinatedAttackScenario.node[310].veinsmobility totalCO2Emission 625.22175321013
scalar CoordinatedAttackScenario.node[467].veinsmobility startTime 20000
scalar CoordinatedAttackScenario.node[467].veinsmobility totalTime 245
scalar CoordinatedAttackScenario.node[467].veinsmobility stopTime 20245.25
scalar CoordinatedAttackScenario.node[467].veinsmobility minSpeed 0
scalar CoordinatedAttackScenario.node[467].veinsmobility maxSpeed 12.958029229388
scalar CoordinatedAttackScenario.node[467].veinsmobility totalDistance 1703.5278095894
scalar CoordinatedAttackScenario.node[467].veinsmobility totalCO2Emission 570.42008074301
scalar CoordinatedAttackScenario.node[416].veinsmobility startTime 20000
scalar CoordinatedAttackScenario.node[416].veinsmobility totalTime 247.75
scalar CoordinatedAttackScenario.node[416].veinsmobility stopTime 20248
scalar CoordinatedAttackScenario.node[416].veinsmobility minSpeed 0
scalar CoordinatedAttackScenario.node[416].veinsmobility maxSpeed 11.896971599122
scalar CoordinatedAttackScenario.node[416].veinsmobility totalDistance 2306.1758833117
scalar CoordinatedAttackScenario.node[416].veinsmobility totalCO2Emission 462.85025016104
scalar CoordinatedAttackScenario.node[396].veinsmobility startTime 20000
scalar CoordinatedAttackScenario.node[396].veinsmobility totalTime 249.5
scalar CoordinatedAttackScenario.node[396].veinsmobility stopTime 20249.75
scalar CoordinatedAttackScenario.node[396].veinsmobility minSpeed 1.51592006501
scalar CoordinatedAttackScenario.node[396].veinsmobility maxSpeed 15.378366589613
scalar CoordinatedAttackScenario.node[396].veinsmobility totalDistance 3000.1452766171
scalar CoordinatedAttackScenario.node[396].veinsmobility totalCO2Emission 717.8270004491
scalar CoordinatedAttackScenario.node[427].veinsmobility startTime 20000
scalar CoordinatedAttackScenario.node[427].veinsmobility totalTime 251.25
scalar CoordinatedAttackScenario.node[427].veinsmobility stopTime 20251.5
scalar CoordinatedAttackScenario.node[427].veinsmobility minSpeed 2.55298699035
scalar CoordinatedAttackScenario.node[427].veinsmobility maxSpeed 13.180870515403
scalar CoordinatedAttackScenario.node[427].veinsmobility totalDistance 3057.766566208
scalar CoordinatedAttackScenario.node[427].veinsmobility totalCO2Emission 579.0610489644
scalar CoordinatedAttackScenario.node[535].veinsmobility startTime 20000
scalar CoordinatedAttackScenario.node[535].veinsmobility totalTime 253.75
scalar CoordinatedAttackScenario.node[535].veinsmobility stopTime 20254
scalar CoordinatedAttackScenario.node[535].veinsmobility minSpeed 0
scalar CoordinatedAttackScenario.node[535].veinsmobility maxSpeed 15.056344735544
scalar CoordinatedAttackScenario.node[535].veinsmobility totalDistance 2882.2487791722
scalar CoordinatedAttackScenario.node[535].veinsmobility totalCO2Emission 687.88787166404
scalar CoordinatedAttackScenario.node[461].veinsmobility startTime 20000
scalar CoordinatedAttackScenario.node[461].veinsmobility totalTime 254.75
scalar CoordinatedAttackScenario.node[461].veinsmobility stopTime 20255
scalar CoordinatedAttackScenario.node[461].veinsmobility minSpeed 0
scalar CoordinatedAttackScenario.node[461].veinsmobility maxSpeed 22.010340427462
scalar CoordinatedAttackScenario.node[461].veinsmobility totalDistance 2390.2500328933
scalar CoordinatedAttackScenario.node[461].veinsmobility totalCO2Emission 731.38322108897
scalar CoordinatedAttackScenario.node[393].veinsmobility startTime 20000
scalar CoordinatedAttackScenario.node[393].veinsmobility totalTime 254.75
scalar CoordinatedAttackScenario.node[393].veinsmobility stopTime 20255
scalar CoordinatedAttackScenario.node[393].veinsmobility minSpeed 1.3957110556109
scalar CoordinatedAttackScenario.node[393].veinsmobility maxSpeed 26.835421438437
scalar CoordinatedAttackScenario.node[393].veinsmobility totalDistance 3792.2430803611
scalar CoordinatedAttackScenario.node[393].veinsmobility totalCO2Emission 754.54657784903
scalar CoordinatedAttackScenario.node[498].veinsmobility startTime 20000
scalar CoordinatedAttackScenario.node[498].veinsmobility totalTime 256.5
scalar CoordinatedAttackScenario.node[498].veinsmobility stopTime 20256.75
scalar CoordinatedAttackScenario.node[498].veinsmobility minSpeed 0
scalar CoordinatedAttackScenario.node[498].veinsmobility maxSpeed 22.5275723843
scalar CoordinatedAttackScenario.node[498].veinsmobility totalDistance 2455.5925108052
scalar CoordinatedAttackScenario.node[498].veinsmobility totalCO2Emission 652.90449752532
scalar CoordinatedAttackScenario.node[485].veinsmobility startTime 20000
scalar CoordinatedAttackScenario.node[485].veinsmobility totalTime 259.75
scalar CoordinatedAttackScenario.node[485].veinsmobility stopTime 20260
scalar CoordinatedAttackScenario.node[485].veinsmobility minSpeed 0
scalar CoordinatedAttackScenario.node[485].veinsmobility maxSpeed 15.344304291911
scalar CoordinatedAttackScenario.node[485].veinsmobility totalDistance 2575.8869728185
scalar CoordinatedAttackScenario.node[485].veinsmobility totalCO2Emission 685.35335252004
scalar CoordinatedAttackScenario.node[432].veinsmobility startTime 20000
scalar CoordinatedAttackScenario.node[432].veinsmobility totalTime 261
scalar CoordinatedAttackScenario.node[432].veinsmobility stopTime 20261.25
scalar CoordinatedAttackScenario.node[432].veinsmobility minSpeed 2.3334036605025
scalar CoordinatedAttackScenario.node[432].veinsmobility maxSpeed 12.834177175527
scalar CoordinatedAttackScenario.node[432].veinsmobility totalDistance 3233.8190861146
scalar CoordinatedAttackScenario.node[432].veinsmobility totalCO2Emission 547.46095780272
scalar CoordinatedAttackScenario.node[481].veinsmobility startTime 20000
scalar CoordinatedAttackScenario.node[481].veinsmobility totalTime 261
scalar CoordinatedAttackScenario.node[481].veinsmobility stopTime 20261.25
scalar CoordinatedAttackScenario.node[481].veinsmobility minSpeed 0
scalar CoordinatedAttackScenario.node[481].veinsmobility maxSpeed 13.490152593764
scalar CoordinatedAttackScenario.node[481].veinsmobility totalDistance 2329.9557131186
scalar CoordinatedAttackScenario.node[481].veinsmobility totalCO2Emission 661.57494942627
scalar CoordinatedAttackScenario.node[453].veinsmobility startTime 20000
scalar CoordinatedAttackScenario.node[453].veinsmobility totalTime 261.25
scalar CoordinatedAttackScenario.node[453].veinsmobility stopTime 20261.5
scalar CoordinatedAttackScenario.node[453].veinsmobility minSpeed 0
scalar CoordinatedAttackScenario.node[453].veinsmobility maxSpeed 12.795742794683
scalar CoordinatedAttackScenario.node[453].veinsmobility totalDistance 1912.1410821142
scalar CoordinatedAttackScenario.node[453].veinsmobility totalCO2Emission 560.84515441327
scalar CoordinatedAttackScenario.node[500].veinsmobility startTime 20000
scalar CoordinatedAttackScenario.node[500].veinsmobility totalTime 263.25
scalar CoordinatedAttackScenario.node[500].veinsmobility stopTime 20263.5
scalar CoordinatedAttackScenario.node[500].veinsmobility minSpeed 0
scalar CoordinatedAttackScenario.node[500].veinsmobility maxSpeed 19.408120478255
scalar CoordinatedAttackScenario.node[500].veinsmobility totalDistance 2997.1616972867
scalar CoordinatedAttackScenario.node[500].veinsmobility totalCO2Emission 645.03981675421
scalar CoordinatedAttackScenario.node[353].veinsmobility startTime 20000
scalar CoordinatedAttackScenario.node[353].veinsmobility totalTime 265.5
scalar CoordinatedAttackScenario.node[353].veinsmobility stopTime 20265.75
scalar CoordinatedAttackScenario.node[353].veinsmobility minSpeed 0
scalar CoordinatedAttackScenario.node[353].veinsmobility maxSpeed 20.374373376045
scalar CoordinatedAttackScenario.node[353].veinsmobility totalDistance 3244.2560825877
scalar CoordinatedAttackScenario.node[353].veinsmobility totalCO2Emission 673.38597499886
scalar CoordinatedAttackScenario.node[311].veinsmobility startTime 20000
scalar CoordinatedAttackScenario.node[311].veinsmobility totalTime 265.75
scalar CoordinatedAttackScenario.node[311].veinsmobility stopTime 20266
scalar CoordinatedAttackScenario.node[311].veinsmobility minSpeed 0
scalar CoordinatedAttackScenario.node[311].veinsmobility maxSpeed 16.240872898025
scalar CoordinatedAttackScenario.node[311].veinsmobility totalDistance 3843.6614740692
scalar CoordinatedAttackScenario.node[311].veinsmobility totalCO2Emission 672.83178822017
scalar CoordinatedAttackScenario.node[406].veinsmobility startTime 20000
scalar CoordinatedAttackScenario.node[406].veinsmobility totalTime 266.5
scalar CoordinatedAttackScenario.node[406].veinsmobility stopTime 20266.75
scalar CoordinatedAttackScenario.node[406].veinsmobility minSpeed 5.8718375285131
scalar CoordinatedAttackScenario.node[406].veinsmobility maxSpeed 18.425122457757
scalar CoordinatedAttackScenario.node[406].veinsmobility totalDistance 3626.7884079346
scalar CoordinatedAttackScenario.node[406].veinsmobility totalCO2Emission 617.06126975735
scalar CoordinatedAttackScenario.node[444].veinsmobility startTime 20000
scalar CoordinatedAttackScenario.node[444].veinsmobility totalTime 270.5
scalar CoordinatedAttackScenario.node[444].veinsmobility stopTime 20270.75
scalar CoordinatedAttackScenario.node[444].veinsmobility minSpeed 1.6786768889891
scalar CoordinatedAttackScenario.node[444].veinsmobility maxSpeed 16.692224734781
scalar CoordinatedAttackScenario.node[444].veinsmobility totalDistance 3489.2751086404
scalar CoordinatedAttackScenario.node[444].veinsmobility totalCO2Emission 625.66850651805
scalar CoordinatedAttackScenario.node[331].veinsmobility startTime 20000
scalar CoordinatedAttackScenario.node[331].veinsmobility totalTime 272.75
scalar CoordinatedAttackScenario.node[331].veinsmobility stopTime 20273
scalar CoordinatedAttackScenario.node[331].veinsmobility minSpeed 3.3277072528256
scalar CoordinatedAttackScenario.node[331].veinsmobility maxSpeed 15.600226512223
scalar CoordinatedAttackScenario.node[331].veinsmobility totalDistance 3674.6267341564
scalar CoordinatedAttackScenario.node[331].veinsmobility totalCO2Emission 646.78428635846
scalar CoordinatedAttackScenario.node[441].veinsmobility startTime 20000
scalar CoordinatedAttackScenario.node[441].veinsmobility totalTime 273.25
scalar CoordinatedAttackScenario.node[441].veinsmobility stopTime 20273.5
scalar CoordinatedAttackScenario.node[441].veinsmobility minSpeed 2.5321771114434
scalar CoordinatedAttackScenario.node[441].veinsmobility maxSpeed 11.673762709627
scalar CoordinatedAttackScenario.node[441].veinsmobility totalDistance 3036.5532555508
scalar CoordinatedAttackScenario.node[441].veinsmobility totalCO2Emission 524.48784714726
scalar CoordinatedAttackScenario.node[557].veinsmobility startTime 20000
scalar CoordinatedAttackScenario.node[557].veinsmobility totalTime 273.5
scalar CoordinatedAttackScenario.node[557].veinsmobility stopTime 20273.75
scalar CoordinatedAttackScenario.node[557].veinsmobility minSpeed 2.5513459647484
scalar CoordinatedAttackScenario.node[557].veinsmobility maxSpeed 21.700338713354
scalar CoordinatedAttackScenario.node[557].veinsmobility totalDistance 2690.3317343411
scalar CoordinatedAttackScenario.node[557].veinsmobility totalCO2Emission 693.62676430088
scalar CoordinatedAttackScenario.node[394].veinsmobility startTime 20000
scalar CoordinatedAttackScenario.node[394].veinsmobility totalTime 280
scalar CoordinatedAttackScenario.node[394].veinsmobility stopTime 20280.25
scalar CoordinatedAttackScenario.node[394].veinsmobility minSpeed 1.3100644757316
scalar CoordinatedAttackScenario.node[394].veinsmobility maxSpeed 25.465754511807
scalar CoordinatedAttackScenario.node[394].veinsmobility totalDistance 3969.5087353062
scalar CoordinatedAttackScenario.node[394].veinsmobility totalCO2Emission 802.2347583923
scalar CoordinatedAttackScenario.node[555].veinsmobility startTime 20000
scalar CoordinatedAttackScenario.node[555].veinsmobility totalTime 287.25
scalar CoordinatedAttackScenario.node[555].veinsmobility stopTime 20287.5
scalar CoordinatedAttackScenario.node[555].veinsmobility minSpeed 2.4377475073817
scalar CoordinatedAttackScenario.node[555].veinsmobility maxSpeed 20.918220373118
scalar CoordinatedAttackScenario.node[555].veinsmobility totalDistance 3845.7194061643
scalar CoordinatedAttackScenario.node[555].veinsmobility totalCO2Emission 886.34671634915
scalar CoordinatedAttackScenario.node[384].veinsmobility startTime 20000
scalar CoordinatedAttackScenario.node[384].veinsmobility totalTime 288.25
scalar CoordinatedAttackScenario.node[384].veinsmobility stopTime 20288.5
scalar CoordinatedAttackScenario.node[384].veinsmobility minSpeed 1.6661154552913
scalar CoordinatedAttackScenario.node[384].veinsmobility maxSpeed 17.81024972023
scalar CoordinatedAttackScenario.node[384].veinsmobility totalDistance 4251.0336368466
scalar CoordinatedAttackScenario.node[384].veinsmobility totalCO2Emission 822.01299569675
scalar CoordinatedAttackScenario.node[308].veinsmobility startTime 20000
scalar CoordinatedAttackScenario.node[308].veinsmobility totalTime 288.25
scalar CoordinatedAttackScenario.node[308].veinsmobility stopTime 20288.5
scalar CoordinatedAttackScenario.node[308].veinsmobility minSpeed 3.4714534818017
scalar CoordinatedAttackScenario.node[308].veinsmobility maxSpeed 17.722893399648
scalar CoordinatedAttackScenario.node[308].veinsmobility totalDistance 3813.0119297345
scalar CoordinatedAttackScenario.node[308].veinsmobility totalCO2Emission 696.43688899981
scalar CoordinatedAttackScenario.node[492].veinsmobility startTime 20000
scalar CoordinatedAttackScenario.node[492].veinsmobility totalTime 290
scalar CoordinatedAttackScenario.node[492].veinsmobility stopTime 20290.25
scalar CoordinatedAttackScenario.node[492].veinsmobility minSpeed 0
scalar CoordinatedAttackScenario.node[492].veinsmobility maxSpeed 14.953950602524
scalar CoordinatedAttackScenario.node[492].veinsmobility totalDistance 3163.7602202522
scalar CoordinatedAttackScenario.node[492].veinsmobility totalCO2Emission 737.87644374648
scalar CoordinatedAttackScenario.node[431].veinsmobility startTime 20000
scalar CoordinatedAttackScenario.node[431].veinsmobility totalTime 290.5
scalar CoordinatedAttackScenario.node[431].veinsmobility stopTime 20290.75
scalar CoordinatedAttackScenario.node[431].veinsmobility minSpeed 3.4222598522272
scalar CoordinatedAttackScenario.node[431].veinsmobility maxSpeed 13.904344581944
scalar CoordinatedAttackScenario.node[431].veinsmobility totalDistance 3892.5589478163
scalar CoordinatedAttackScenario.node[431].veinsmobility totalCO2Emission 639.38002398998
scalar CoordinatedAttackScenario.node[389].veinsmobility startTime 20000
scalar CoordinatedAttackScenario.node[389].veinsmobility totalTime 294.5
scalar CoordinatedAttackScenario.node[389].veinsmobility stopTime 20294.75
scalar CoordinatedAttackScenario.node[389].veinsmobility minSpeed 4.7583819560762
scalar CoordinatedAttackScenario.node[389].veinsmobility maxSpeed 16.840691029163
scalar CoordinatedAttackScenario.node[389].veinsmobility totalDistance 3273.1620731022
scalar CoordinatedAttackScenario.node[389].veinsmobility totalCO2Emission 606.02297859534
scalar CoordinatedAttackScenario.node[483].veinsmobility startTime 20000
scalar CoordinatedAttackScenario.node[483].veinsmobility totalTime 296.5
scalar CoordinatedAttackScenario.node[483].veinsmobility stopTime 20296.75
scalar CoordinatedAttackScenario.node[483].veinsmobility minSpeed 0
scalar CoordinatedAttackScenario.node[483].veinsmobility maxSpeed 23.500311424495
scalar CoordinatedAttackScenario.node[483].veinsmobility totalDistance 2787.8655242728
scalar CoordinatedAttackScenario.node[483].veinsmobility totalCO2Emission 833.10727213595
scalar CoordinatedAttackScenario.node[447].veinsmobility startTime 20000
scalar CoordinatedAttackScenario.node[447].veinsmobility totalTime 297.25
scalar CoordinatedAttackScenario.node[447].veinsmobility stopTime 20297.5
scalar CoordinatedAttackScenario.node[447].veinsmobility minSpeed 3.5313214403158
scalar CoordinatedAttackScenario.node[447].veinsmobility maxSpeed 16.535284267521
scalar CoordinatedAttackScenario.node[447].veinsmobility totalDistance 4326.3710943417
scalar CoordinatedAttackScenario.node[447].veinsmobility totalCO2Emission 784.26778825214
scalar CoordinatedAttackScenario.node[307].veinsmobility startTime 20000
scalar CoordinatedAttackScenario.node[307].veinsmobility totalTime 307.5
scalar CoordinatedAttackScenario.node[307].veinsmobility stopTime 20307.75
scalar CoordinatedAttackScenario.node[307].veinsmobility minSpeed 1.5483370602005
scalar CoordinatedAttackScenario.node[307].veinsmobility maxSpeed 16.326626185991
scalar CoordinatedAttackScenario.node[307].veinsmobility totalDistance 4261.1774282819
scalar CoordinatedAttackScenario.node[307].veinsmobility totalCO2Emission 779.62780086849
scalar CoordinatedAttackScenario.node[443].veinsmobility startTime 20000
scalar CoordinatedAttackScenario.node[443].veinsmobility totalTime 314.5
scalar CoordinatedAttackScenario.node[443].veinsmobility stopTime 20314.75
scalar CoordinatedAttackScenario.node[443].veinsmobility minSpeed 2.0371660367209
scalar CoordinatedAttackScenario.node[443].veinsmobility maxSpeed 11.403219503907
scalar CoordinatedAttackScenario.node[443].veinsmobility totalDistance 3081.9470623779
scalar CoordinatedAttackScenario.node[443].veinsmobility totalCO2Emission 693.47381841349
scalar CoordinatedAttackScenario.node[349].veinsmobility startTime 20000
scalar CoordinatedAttackScenario.node[349].veinsmobility totalTime 317.25
scalar CoordinatedAttackScenario.node[349].veinsmobility stopTime 20317.5
scalar CoordinatedAttackScenario.node[349].veinsmobility minSpeed 2.9791279607766
scalar CoordinatedAttackScenario.node[349].veinsmobility maxSpeed 13.900270344166
scalar CoordinatedAttackScenario.node[349].veinsmobility totalDistance 4194.508405528
scalar CoordinatedAttackScenario.node[349].veinsmobility totalCO2Emission 716.24189212373
scalar CoordinatedAttackScenario.node[345].veinsmobility startTime 20000
scalar CoordinatedAttackScenario.node[345].veinsmobility totalTime 318.5
scalar CoordinatedAttackScenario.node[345].veinsmobility stopTime 20318.75
scalar CoordinatedAttackScenario.node[345].veinsmobility minSpeed 3.0959001781369
scalar CoordinatedAttackScenario.node[345].veinsmobility maxSpeed 28.515921893882
scalar CoordinatedAttackScenario.node[345].veinsmobility totalDistance 4925.3822986849
scalar CoordinatedAttackScenario.node[345].veinsmobility totalCO2Emission 1006.9679443409
scalar CoordinatedAttackScenario.node[336].veinsmobility startTime 20000
scalar CoordinatedAttackScenario.node[336].veinsmobility totalTime 322.25
scalar CoordinatedAttackScenario.node[336].veinsmobility stopTime 20322.5
scalar CoordinatedAttackScenario.node[336].veinsmobility minSpeed 0
scalar CoordinatedAttackScenario.node[336].veinsmobility maxSpeed 12.226613607023
scalar CoordinatedAttackScenario.node[336].veinsmobility totalDistance 3692.9891254308
scalar CoordinatedAttackScenario.node[336].veinsmobility totalCO2Emission 661.63952793004
scalar CoordinatedAttackScenario.node[374].veinsmobility startTime 20000
scalar CoordinatedAttackScenario.node[374].veinsmobility totalTime 322.5
scalar CoordinatedAttackScenario.node[374].veinsmobility stopTime 20322.75
scalar CoordinatedAttackScenario.node[374].veinsmobility minSpeed 1.4305139689236
scalar CoordinatedAttackScenario.node[374].veinsmobility maxSpeed 15.900988004782
scalar CoordinatedAttackScenario.node[374].veinsmobility totalDistance 4287.9784755923
scalar CoordinatedAttackScenario.node[374].veinsmobility totalCO2Emission 772.05255220642
scalar CoordinatedAttackScenario.node[449].veinsmobility startTime 20000
scalar CoordinatedAttackScenario.node[449].veinsmobility totalTime 325.75
scalar CoordinatedAttackScenario.node[449].veinsmobility stopTime 20326
scalar CoordinatedAttackScenario.node[449].veinsmobility minSpeed 0
scalar CoordinatedAttackScenario.node[449].veinsmobility maxSpeed 19.554439519279
scalar CoordinatedAttackScenario.node[449].veinsmobility totalDistance 4490.232998297
scalar CoordinatedAttackScenario.node[449].veinsmobility totalCO2Emission 915.80445426769
scalar CoordinatedAttackScenario.node[316].veinsmobility startTime 20000
scalar CoordinatedAttackScenario.node[316].veinsmobility totalTime 327
scalar CoordinatedAttackScenario.node[316].veinsmobility stopTime 20327.25
scalar CoordinatedAttackScenario.node[316].veinsmobility minSpeed 1.4459613356225
scalar CoordinatedAttackScenario.node[316].veinsmobility maxSpeed 16.248655965523
scalar CoordinatedAttackScenario.node[316].veinsmobility totalDistance 4285.7070679229
scalar CoordinatedAttackScenario.node[316].veinsmobility totalCO2Emission 821.62424520882
scalar CoordinatedAttackScenario.node[344].veinsmobility startTime 20000
scalar CoordinatedAttackScenario.node[344].veinsmobility totalTime 329.25
scalar CoordinatedAttackScenario.node[344].veinsmobility stopTime 20329.5
scalar CoordinatedAttackScenario.node[344].veinsmobility minSpeed 0.071339975699972
scalar CoordinatedAttackScenario.node[344].veinsmobility maxSpeed 22.477313796777
scalar CoordinatedAttackScenario.node[344].veinsmobility totalDistance 4345.5633228726
scalar CoordinatedAttackScenario.node[344].veinsmobility totalCO2Emission 867.26742182283
scalar CoordinatedAttackScenario.node[554].veinsmobility startTime 20000
scalar CoordinatedAttackScenario.node[554].veinsmobility totalTime 331.75
scalar CoordinatedAttackScenario.node[554].veinsmobility stopTime 20332
scalar CoordinatedAttackScenario.node[554].veinsmobility minSpeed 0.61452097757876
scalar CoordinatedAttackScenario.node[554].veinsmobility maxSpeed 24.623315426169
scalar CoordinatedAttackScenario.node[554].veinsmobility totalDistance 4101.9712271193
scalar CoordinatedAttackScenario.node[554].veinsmobility totalCO2Emission 1091.0525025486
scalar CoordinatedAttackScenario.node[1925].veinsmobility startTime 20068.25
scalar CoordinatedAttackScenario.node[1925].veinsmobility totalTime 266
scalar CoordinatedAttackScenario.node[1925].veinsmobility stopTime 20334.5
scalar CoordinatedAttackScenario.node[1925].veinsmobility minSpeed 0.62532779328249
scalar CoordinatedAttackScenario.node[1925].veinsmobility maxSpeed 18.01771592274
scalar CoordinatedAttackScenario.node[1925].veinsmobility totalDistance 3459.9764846601
scalar CoordinatedAttackScenario.node[1925].veinsmobility totalCO2Emission 738.28408090209
scalar CoordinatedAttackScenario.node[543].veinsmobility startTime 20000
scalar CoordinatedAttackScenario.node[543].veinsmobility totalTime 340
scalar CoordinatedAttackScenario.node[543].veinsmobility stopTime 20340.25
scalar CoordinatedAttackScenario.node[543].veinsmobility minSpeed 0.00027030261775706
scalar CoordinatedAttackScenario.node[543].veinsmobility maxSpeed 11.351540708501
scalar CoordinatedAttackScenario.node[543].veinsmobility totalDistance 3043.1072168022
scalar CoordinatedAttackScenario.node[543].veinsmobility totalCO2Emission 683.30120803341
scalar CoordinatedAttackScenario.node[459].veinsmobility startTime 20000
scalar CoordinatedAttackScenario.node[459].veinsmobility totalTime 348
scalar CoordinatedAttackScenario.node[459].veinsmobility stopTime 20348.25
scalar CoordinatedAttackScenario.node[459].veinsmobility minSpeed 0
scalar CoordinatedAttackScenario.node[459].veinsmobility maxSpeed 21.154252688617
scalar CoordinatedAttackScenario.node[459].veinsmobility totalDistance 3827.1325208561
scalar CoordinatedAttackScenario.node[459].veinsmobility totalCO2Emission 930.70187714177
scalar CoordinatedAttackScenario.node[517].veinsmobility startTime 20000
scalar CoordinatedAttackScenario.node[517].veinsmobility totalTime 349.75
scalar CoordinatedAttackScenario.node[517].veinsmobility stopTime 20350
scalar CoordinatedAttackScenario.node[517].veinsmobility minSpeed 0
scalar CoordinatedAttackScenario.node[517].veinsmobility maxSpeed 13.415563434496
scalar CoordinatedAttackScenario.node[517].veinsmobility totalDistance 3093.3602889838
scalar CoordinatedAttackScenario.node[517].veinsmobility totalCO2Emission 816.36207524163
scalar CoordinatedAttackScenario.node[319].veinsmobility startTime 20000
scalar CoordinatedAttackScenario.node[319].veinsmobility totalTime 352.5
scalar CoordinatedAttackScenario.node[319].veinsmobility stopTime 20352.75
scalar CoordinatedAttackScenario.node[319].veinsmobility minSpeed 0
scalar CoordinatedAttackScenario.node[319].veinsmobility maxSpeed 25.048058503643
scalar CoordinatedAttackScenario.node[319].veinsmobility totalDistance 4747.0597674829
scalar CoordinatedAttackScenario.node[319].veinsmobility totalCO2Emission 969.18604523449
scalar CoordinatedAttackScenario.node[497].veinsmobility startTime 20000
scalar CoordinatedAttackScenario.node[497].veinsmobility totalTime 353
scalar CoordinatedAttackScenario.node[497].veinsmobility stopTime 20353.25
scalar CoordinatedAttackScenario.node[497].veinsmobility minSpeed 0
scalar CoordinatedAttackScenario.node[497].veinsmobility maxSpeed 20.997822687425
scalar CoordinatedAttackScenario.node[497].veinsmobility totalDistance 2852.4951520156
scalar CoordinatedAttackScenario.node[497].veinsmobility totalCO2Emission 913.39696547859
scalar CoordinatedAttackScenario.node[330].veinsmobility startTime 20000
scalar CoordinatedAttackScenario.node[330].veinsmobility totalTime 354.5
scalar CoordinatedAttackScenario.node[330].veinsmobility stopTime 20354.75
scalar CoordinatedAttackScenario.node[330].veinsmobility minSpeed 1.6084212448696
scalar CoordinatedAttackScenario.node[330].veinsmobility maxSpeed 16.713736434636
scalar CoordinatedAttackScenario.node[330].veinsmobility totalDistance 5133.6603398211
scalar CoordinatedAttackScenario.node[330].veinsmobility totalCO2Emission 979.78878754009
scalar CoordinatedAttackScenario.node[469].veinsmobility startTime 20000
scalar CoordinatedAttackScenario.node[469].veinsmobility totalTime 357.75
scalar CoordinatedAttackScenario.node[469].veinsmobility stopTime 20358
scalar CoordinatedAttackScenario.node[469].veinsmobility minSpeed 0
scalar CoordinatedAttackScenario.node[469].veinsmobility maxSpeed 21.563044084431
scalar CoordinatedAttackScenario.node[469].veinsmobility totalDistance 3470.6308031472
scalar CoordinatedAttackScenario.node[469].veinsmobility totalCO2Emission 997.14909182412
scalar CoordinatedAttackScenario.node[418].veinsmobility startTime 20000
scalar CoordinatedAttackScenario.node[418].veinsmobility totalTime 366.5
scalar CoordinatedAttackScenario.node[418].veinsmobility stopTime 20366.75
scalar CoordinatedAttackScenario.node[418].veinsmobility minSpeed 0
scalar CoordinatedAttackScenario.node[418].veinsmobility maxSpeed 14.133634827814
scalar CoordinatedAttackScenario.node[418].veinsmobility totalDistance 4880.7918402728
scalar CoordinatedAttackScenario.node[418].veinsmobility totalCO2Emission 815.08377562781
[...]
scalar CoordinatedAttackScenario.node[1726].veinsmobility totalTime 3603
scalar CoordinatedAttackScenario.node[1726].veinsmobility stopTime 23603
scalar CoordinatedAttackScenario.node[1726].veinsmobility minSpeed 0
scalar CoordinatedAttackScenario.node[1726].veinsmobility maxSpeed 18.74981911907
scalar CoordinatedAttackScenario.node[1726].veinsmobility totalDistance 3512.6648198835
scalar CoordinatedAttackScenario.node[1726].veinsmobility totalCO2Emission 4515.3167169073
scalar CoordinatedAttackScenario.node[1727].veinsmobility startTime 20000
scalar CoordinatedAttackScenario.node[1727].veinsmobility totalTime 3603
scalar CoordinatedAttackScenario.node[1727].veinsmobility stopTime 23603
scalar CoordinatedAttackScenario.node[1727].veinsmobility minSpeed 0.0051848161323771
scalar CoordinatedAttackScenario.node[1727].veinsmobility maxSpeed 0.0051848161323771
scalar CoordinatedAttackScenario.node[1727].veinsmobility totalDistance 0
scalar CoordinatedAttackScenario.node[1727].veinsmobility totalCO2Emission 3999.9536037739
scalar CoordinatedAttackScenario.node[1728].veinsmobility startTime 20000
scalar CoordinatedAttackScenario.node[1728].veinsmobility totalTime 3603
scalar CoordinatedAttackScenario.node[1728].veinsmobility stopTime 23603
scalar CoordinatedAttackScenario.node[1728].veinsmobility minSpeed 0.013284998354788
scalar CoordinatedAttackScenario.node[1728].veinsmobility maxSpeed 26.161928246218
scalar CoordinatedAttackScenario.node[1728].veinsmobility totalDistance 345.46463770904
scalar CoordinatedAttackScenario.node[1728].veinsmobility totalCO2Emission 4050.3530955681
scalar CoordinatedAttackScenario.node[1729].veinsmobility startTime 20000
scalar CoordinatedAttackScenario.node[1729].veinsmobility totalTime 3603
scalar CoordinatedAttackScenario.node[1729].veinsmobility stopTime 23603
scalar CoordinatedAttackScenario.node[1729].veinsmobility minSpeed 0
scalar CoordinatedAttackScenario.node[1729].veinsmobility maxSpeed 22.54958354
scalar CoordinatedAttackScenario.node[1729].veinsmobility totalDistance 2907.3246509495
scalar CoordinatedAttackScenario.node[1729].veinsmobility totalCO2Emission 4471.3591425174
scalar CoordinatedAttackScenario.node[1730].veinsmobility startTime 20000
scalar CoordinatedAttackScenario.node[1730].veinsmobility totalTime 3603
scalar CoordinatedAttackScenario.node[1730].veinsmobility stopTime 23603
scalar CoordinatedAttackScenario.node[1730].veinsmobility minSpeed 0.0038000134669624
scalar CoordinatedAttackScenario.node[1730].veinsmobility maxSpeed 0.0038000134669624
scalar CoordinatedAttackScenario.node[1730].veinsmobility totalDistance 0
scalar CoordinatedAttackScenario.node[1730].veinsmobility totalCO2Emission 3999.7129296657
scalar CoordinatedAttackScenario.node[1828].veinsmobility startTime 20013.25
scalar CoordinatedAttackScenario.node[1828].veinsmobility totalTime 3589.75
scalar CoordinatedAttackScenario.node[1828].veinsmobility stopTime 23603
scalar CoordinatedAttackScenario.node[1828].veinsmobility minSpeed 0
scalar CoordinatedAttackScenario.node[1828].veinsmobility maxSpeed 21.08692539919
scalar CoordinatedAttackScenario.node[1828].veinsmobility totalDistance 8220.8224545767
scalar CoordinatedAttackScenario.node[1828].veinsmobility totalCO2Emission 5065.2209519912
scalar CoordinatedAttackScenario.node[1812].veinsmobility startTime 20004.25
scalar CoordinatedAttackScenario.node[1812].veinsmobility totalTime 3598.75
scalar CoordinatedAttackScenario.node[1812].veinsmobility stopTime 23603
scalar CoordinatedAttackScenario.node[1812].veinsmobility minSpeed 0.011882965047904
scalar CoordinatedAttackScenario.node[1812].veinsmobility maxSpeed 13.155997466715
scalar CoordinatedAttackScenario.node[1812].veinsmobility totalDistance 11457.117968461
scalar CoordinatedAttackScenario.node[1812].veinsmobility totalCO2Emission 5127.7006976816
scalar CoordinatedAttackScenario.node[1731].veinsmobility startTime 20000
scalar CoordinatedAttackScenario.node[1731].veinsmobility totalTime 3603
scalar CoordinatedAttackScenario.node[1731].veinsmobility stopTime 23603
scalar CoordinatedAttackScenario.node[1731].veinsmobility minSpeed 0.042386086708517
scalar CoordinatedAttackScenario.node[1731].veinsmobility maxSpeed 0.042386086708517
scalar CoordinatedAttackScenario.node[1731].veinsmobility totalDistance 0
scalar CoordinatedAttackScenario.node[1731].veinsmobility totalCO2Emission 4006.4190856442
scalar CoordinatedAttackScenario.node[1732].veinsmobility startTime 20000
scalar CoordinatedAttackScenario.node[1732].veinsmobility totalTime 3603
scalar CoordinatedAttackScenario.node[1732].veinsmobility stopTime 23603
scalar CoordinatedAttackScenario.node[1732].veinsmobility minSpeed 0.002809147807544
scalar CoordinatedAttackScenario.node[1732].veinsmobility maxSpeed 0.002809147807544
scalar CoordinatedAttackScenario.node[1732].veinsmobility totalDistance 0
scalar CoordinatedAttackScenario.node[1732].veinsmobility totalCO2Emission 3999.540720514
scalar CoordinatedAttackScenario.node[2368].veinsmobility startTime 20336.25
scalar CoordinatedAttackScenario.node[2368].veinsmobility totalTime 3266.75
scalar CoordinatedAttackScenario.node[2368].veinsmobility stopTime 23603
scalar CoordinatedAttackScenario.node[2368].veinsmobility minSpeed 0
scalar CoordinatedAttackScenario.node[2368].veinsmobility maxSpeed 20.608666724634
scalar CoordinatedAttackScenario.node[2368].veinsmobility totalDistance 10299.754557442
scalar CoordinatedAttackScenario.node[2368].veinsmobility totalCO2Emission 4753.5307204611
scalar CoordinatedAttackScenario.node[1733].veinsmobility startTime 20000
scalar CoordinatedAttackScenario.node[1733].veinsmobility totalTime 3603
scalar CoordinatedAttackScenario.node[1733].veinsmobility stopTime 23603
scalar CoordinatedAttackScenario.node[1733].veinsmobility minSpeed 0.061849969217385
scalar CoordinatedAttackScenario.node[1733].veinsmobility maxSpeed 0.061849969217385
scalar CoordinatedAttackScenario.node[1733].veinsmobility totalDistance 0
scalar CoordinatedAttackScenario.node[1733].veinsmobility totalCO2Emission 4009.8018968169
scalar CoordinatedAttackScenario.node[1734].veinsmobility startTime 20000
scalar CoordinatedAttackScenario.node[1734].veinsmobility totalTime 3603
scalar CoordinatedAttackScenario.node[1734].veinsmobility stopTime 23603
scalar CoordinatedAttackScenario.node[1734].veinsmobility minSpeed 0.038345013869075
scalar CoordinatedAttackScenario.node[1734].veinsmobility maxSpeed 0.038345013869075
scalar CoordinatedAttackScenario.node[1734].veinsmobility totalDistance 0
scalar CoordinatedAttackScenario.node[1734].veinsmobility totalCO2Emission 4005.7167541013
scalar CoordinatedAttackScenario.node[1735].veinsmobility startTime 20000
scalar CoordinatedAttackScenario.node[1735].veinsmobility totalTime 3603
scalar CoordinatedAttackScenario.node[1735].veinsmobility stopTime 23603
scalar CoordinatedAttackScenario.node[1735].veinsmobility minSpeed 0.035546548080326
scalar CoordinatedAttackScenario.node[1735].veinsmobility maxSpeed 0.035546548080326
scalar CoordinatedAttackScenario.node[1735].veinsmobility totalDistance 0
scalar CoordinatedAttackScenario.node[1735].veinsmobility totalCO2Emission 4005.230386278
scalar CoordinatedAttackScenario.node[1736].veinsmobility startTime 20000
scalar CoordinatedAttackScenario.node[1736].veinsmobility totalTime 3603
scalar CoordinatedAttackScenario.node[1736].veinsmobility stopTime 23603
scalar CoordinatedAttackScenario.node[1736].veinsmobility minSpeed 0.0012159900130093
scalar CoordinatedAttackScenario.node[1736].veinsmobility maxSpeed 0.0012159900130093
scalar CoordinatedAttackScenario.node[1736].veinsmobility totalDistance 0
scalar CoordinatedAttackScenario.node[1736].veinsmobility totalCO2Emission 3999.2638350035
scalar CoordinatedAttackScenario.node[1737].veinsmobility startTime 20000
scalar CoordinatedAttackScenario.node[1737].veinsmobility totalTime 3603
scalar CoordinatedAttackScenario.node[1737].veinsmobility stopTime 23603
scalar CoordinatedAttackScenario.node[1737].veinsmobility minSpeed 0.014068638875219
scalar CoordinatedAttackScenario.node[1737].veinsmobility maxSpeed 0.014068638875219
scalar CoordinatedAttackScenario.node[1737].veinsmobility totalDistance 0
scalar CoordinatedAttackScenario.node[1737].veinsmobility totalCO2Emission 4001.4975833749
scalar CoordinatedAttackScenario.node[1738].veinsmobility startTime 20000
scalar CoordinatedAttackScenario.node[1738].veinsmobility totalTime 3603
scalar CoordinatedAttackScenario.node[1738].veinsmobility stopTime 23603
scalar CoordinatedAttackScenario.node[1738].veinsmobility minSpeed 0.037443122690297
scalar CoordinatedAttackScenario.node[1738].veinsmobility maxSpeed 13.156385402894
scalar CoordinatedAttackScenario.node[1738].veinsmobility totalDistance 4497.7001471181
scalar CoordinatedAttackScenario.node[1738].veinsmobility totalCO2Emission 4584.4507683443
scalar CoordinatedAttackScenario.node[1739].veinsmobility startTime 20000
scalar CoordinatedAttackScenario.node[1739].veinsmobility totalTime 3603
scalar CoordinatedAttackScenario.node[1739].veinsmobility stopTime 23603
scalar CoordinatedAttackScenario.node[1739].veinsmobility minSpeed 0.063191795567849
scalar CoordinatedAttackScenario.node[1739].veinsmobility maxSpeed 0.063191795567849
scalar CoordinatedAttackScenario.node[1739].veinsmobility totalDistance 0
scalar CoordinatedAttackScenario.node[1739].veinsmobility totalCO2Emission 4010.0351069923
scalar CoordinatedAttackScenario.node[1740].veinsmobility startTime 20000
scalar CoordinatedAttackScenario.node[1740].veinsmobility totalTime 3603
scalar CoordinatedAttackScenario.node[1740].veinsmobility stopTime 23603
scalar CoordinatedAttackScenario.node[1740].veinsmobility minSpeed 0
scalar CoordinatedAttackScenario.node[1740].veinsmobility maxSpeed 21.796307375312
scalar CoordinatedAttackScenario.node[1740].veinsmobility totalDistance 5599.2944835162
scalar CoordinatedAttackScenario.node[1740].veinsmobility totalCO2Emission 4716.3062959817
scalar CoordinatedAttackScenario.node[1741].veinsmobility startTime 20000
scalar CoordinatedAttackScenario.node[1741].veinsmobility totalTime 3603
scalar CoordinatedAttackScenario.node[1741].veinsmobility stopTime 23603
scalar CoordinatedAttackScenario.node[1741].veinsmobility minSpeed 0.009068989682296
scalar CoordinatedAttackScenario.node[1741].veinsmobility maxSpeed 0.009068989682296
scalar CoordinatedAttackScenario.node[1741].veinsmobility totalDistance 0
scalar CoordinatedAttackScenario.node[1741].veinsmobility totalCO2Emission 4000.6286603639
scalar CoordinatedAttackScenario.node[1742].veinsmobility startTime 20000
scalar CoordinatedAttackScenario.node[1742].veinsmobility totalTime 3603
scalar CoordinatedAttackScenario.node[1742].veinsmobility stopTime 23603
scalar CoordinatedAttackScenario.node[1742].veinsmobility minSpeed 0.013481424675813
scalar CoordinatedAttackScenario.node[1742].veinsmobility maxSpeed 0.013481424675813
scalar CoordinatedAttackScenario.node[1742].veinsmobility totalDistance 0
scalar CoordinatedAttackScenario.node[1742].veinsmobility totalCO2Emission 4001.3955273971
scalar CoordinatedAttackScenario.node[1743].veinsmobility startTime 20000
scalar CoordinatedAttackScenario.node[1743].veinsmobility totalTime 3603
scalar CoordinatedAttackScenario.node[1743].veinsmobility stopTime 23603
scalar CoordinatedAttackScenario.node[1743].veinsmobility minSpeed 0.016185876849606
scalar CoordinatedAttackScenario.node[1743].veinsmobility maxSpeed 0.016185876849606
scalar CoordinatedAttackScenario.node[1743].veinsmobility totalDistance 0
scalar CoordinatedAttackScenario.node[1743].veinsmobility totalCO2Emission 4001.8655527456
scalar CoordinatedAttackScenario.node[1744].veinsmobility startTime 20000
scalar CoordinatedAttackScenario.node[1744].veinsmobility totalTime 3603
scalar CoordinatedAttackScenario.node[1744].veinsmobility stopTime 23603
scalar CoordinatedAttackScenario.node[1744].veinsmobility minSpeed 0.06735987168159
scalar CoordinatedAttackScenario.node[1744].veinsmobility maxSpeed 0.06735987168159
scalar CoordinatedAttackScenario.node[1744].veinsmobility totalDistance 0
scalar CoordinatedAttackScenario.node[1744].veinsmobility totalCO2Emission 4010.7595224378
scalar CoordinatedAttackScenario.node[1745].veinsmobility startTime 20000
scalar CoordinatedAttackScenario.node[1745].veinsmobility totalTime 3603
scalar CoordinatedAttackScenario.node[1745].veinsmobility stopTime 23603
scalar CoordinatedAttackScenario.node[1745].veinsmobility minSpeed 0.014989733013076
scalar CoordinatedAttackScenario.node[1745].veinsmobility maxSpeed 0.014989733013076
scalar CoordinatedAttackScenario.node[1745].veinsmobility totalDistance 0
scalar CoordinatedAttackScenario.node[1745].veinsmobility totalCO2Emission 4001.6576666535
scalar CoordinatedAttackScenario.node[1746].veinsmobility startTime 20000
scalar CoordinatedAttackScenario.node[1746].veinsmobility totalTime 3603
scalar CoordinatedAttackScenario.node[1746].veinsmobility stopTime 23603
scalar CoordinatedAttackScenario.node[1746].veinsmobility minSpeed 0.027648591227777
scalar CoordinatedAttackScenario.node[1746].veinsmobility maxSpeed 0.027648591227777
scalar CoordinatedAttackScenario.node[1746].veinsmobility totalDistance 0
scalar CoordinatedAttackScenario.node[1746].veinsmobility totalCO2Emission 4003.857739844
scalar CoordinatedAttackScenario.node[1747].veinsmobility startTime 20000
scalar CoordinatedAttackScenario.node[1747].veinsmobility totalTime 3603
scalar CoordinatedAttackScenario.node[1747].veinsmobility stopTime 23603
scalar CoordinatedAttackScenario.node[1747].veinsmobility minSpeed 0.0002745856462557
scalar CoordinatedAttackScenario.node[1747].veinsmobility maxSpeed 20.394114454893
scalar CoordinatedAttackScenario.node[1747].veinsmobility totalDistance 3962.622477454
scalar CoordinatedAttackScenario.node[1747].veinsmobility totalCO2Emission 4648.0543438375
scalar CoordinatedAttackScenario.node[1748].veinsmobility startTime 20000
scalar CoordinatedAttackScenario.node[1748].veinsmobility totalTime 3603
scalar CoordinatedAttackScenario.node[1748].veinsmobility stopTime 23603
scalar CoordinatedAttackScenario.node[1748].veinsmobility minSpeed 0
scalar CoordinatedAttackScenario.node[1748].veinsmobility maxSpeed 13.006910256851
scalar CoordinatedAttackScenario.node[1748].veinsmobility totalDistance 13119.082062948
scalar CoordinatedAttackScenario.node[1748].veinsmobility totalCO2Emission 5357.5114300993
scalar CoordinatedAttackScenario.node[1890].veinsmobility startTime 20047.25
scalar CoordinatedAttackScenario.node[1890].veinsmobility totalTime 3555.75
scalar CoordinatedAttackScenario.node[1890].veinsmobility stopTime 23603
scalar CoordinatedAttackScenario.node[1890].veinsmobility minSpeed 0
scalar CoordinatedAttackScenario.node[1890].veinsmobility maxSpeed 13.63927503066
scalar CoordinatedAttackScenario.node[1890].veinsmobility totalDistance 9675.0676299393
scalar CoordinatedAttackScenario.node[1890].veinsmobility totalCO2Emission 5128.4146036172
scalar CoordinatedAttackScenario.node[1749].veinsmobility startTime 20000
scalar CoordinatedAttackScenario.node[1749].veinsmobility totalTime 3603
scalar CoordinatedAttackScenario.node[1749].veinsmobility stopTime 23603
scalar CoordinatedAttackScenario.node[1749].veinsmobility minSpeed 0
scalar CoordinatedAttackScenario.node[1749].veinsmobility maxSpeed 14.510469578677
scalar CoordinatedAttackScenario.node[1749].veinsmobility totalDistance 951.10804261582
scalar CoordinatedAttackScenario.node[1749].veinsmobility totalCO2Emission 4134.1937142005
scalar CoordinatedAttackScenario.node[1807].veinsmobility startTime 20002.25
scalar CoordinatedAttackScenario.node[1807].veinsmobility totalTime 3600.75
scalar CoordinatedAttackScenario.node[1807].veinsmobility stopTime 23603
scalar CoordinatedAttackScenario.node[1807].veinsmobility minSpeed 0
scalar CoordinatedAttackScenario.node[1807].veinsmobility maxSpeed 23.716246630046
scalar CoordinatedAttackScenario.node[1807].veinsmobility totalDistance 9975.3734063276
scalar CoordinatedAttackScenario.node[1807].veinsmobility totalCO2Emission 5036.7771614623
scalar CoordinatedAttackScenario.node[1750].veinsmobility startTime 20000
scalar CoordinatedAttackScenario.node[1750].veinsmobility totalTime 3603
scalar CoordinatedAttackScenario.node[1750].veinsmobility stopTime 23603
scalar CoordinatedAttackScenario.node[1750].veinsmobility minSpeed 0
scalar CoordinatedAttackScenario.node[1750].veinsmobility maxSpeed 21.00592678294
scalar CoordinatedAttackScenario.node[1750].veinsmobility totalDistance 8439.9902697084
scalar CoordinatedAttackScenario.node[1750].veinsmobility totalCO2Emission 5094.3800034801
scalar CoordinatedAttackScenario.node[1751].veinsmobility startTime 20000
scalar CoordinatedAttackScenario.node[1751].veinsmobility totalTime 3603
scalar CoordinatedAttackScenario.node[1751].veinsmobility stopTime 23603
scalar CoordinatedAttackScenario.node[1751].veinsmobility minSpeed 0
scalar CoordinatedAttackScenario.node[1751].veinsmobility maxSpeed 14.810986589596
scalar CoordinatedAttackScenario.node[1751].veinsmobility totalDistance 4049.626868798
scalar CoordinatedAttackScenario.node[1751].veinsmobility totalCO2Emission 4620.2235066849
scalar CoordinatedAttackScenario.node[1752].veinsmobility startTime 20000
scalar CoordinatedAttackScenario.node[1752].veinsmobility totalTime 3603
scalar CoordinatedAttackScenario.node[1752].veinsmobility stopTime 23603
scalar CoordinatedAttackScenario.node[1752].veinsmobility minSpeed 0
scalar CoordinatedAttackScenario.node[1752].veinsmobility maxSpeed 15.138186093001
scalar CoordinatedAttackScenario.node[1752].veinsmobility totalDistance 282.40486786536
scalar CoordinatedAttackScenario.node[1752].veinsmobility totalCO2Emission 4053.4179315817
scalar CoordinatedAttackScenario.node[1753].veinsmobility startTime 20000
scalar CoordinatedAttackScenario.node[1753].veinsmobility totalTime 3603
scalar CoordinatedAttackScenario.node[1753].veinsmobility stopTime 23603
scalar CoordinatedAttackScenario.node[1753].veinsmobility minSpeed 0
scalar CoordinatedAttackScenario.node[1753].veinsmobility maxSpeed 19.097728494701
scalar CoordinatedAttackScenario.node[1753].veinsmobility totalDistance 7669.6779496708
scalar CoordinatedAttackScenario.node[1753].veinsmobility totalCO2Emission 4840.9898295428
scalar CoordinatedAttackScenario.node[1754].veinsmobility startTime 20000
scalar CoordinatedAttackScenario.node[1754].veinsmobility totalTime 3603
scalar CoordinatedAttackScenario.node[1754].veinsmobility stopTime 23603
scalar CoordinatedAttackScenario.node[1754].veinsmobility minSpeed 0
scalar CoordinatedAttackScenario.node[1754].veinsmobility maxSpeed 15.775510669688
scalar CoordinatedAttackScenario.node[1754].veinsmobility totalDistance 2876.9482594059
scalar CoordinatedAttackScenario.node[1754].veinsmobility totalCO2Emission 4278.8336437595
scalar CoordinatedAttackScenario.node[1755].veinsmobility startTime 20000
scalar CoordinatedAttackScenario.node[1755].veinsmobility totalTime 3603
scalar CoordinatedAttackScenario.node[1755].veinsmobility stopTime 23603
scalar CoordinatedAttackScenario.node[1755].veinsmobility minSpeed 0.071910449372253
scalar CoordinatedAttackScenario.node[1755].veinsmobility maxSpeed 0.071910449372253
scalar CoordinatedAttackScenario.node[1755].veinsmobility totalDistance 0
scalar CoordinatedAttackScenario.node[1755].veinsmobility totalCO2Emission 4011.5504196817
scalar CoordinatedAttackScenario.node[1756].veinsmobility startTime 20000
scalar CoordinatedAttackScenario.node[1756].veinsmobility totalTime 3603
scalar CoordinatedAttackScenario.node[1756].veinsmobility stopTime 23603
scalar CoordinatedAttackScenario.node[1756].veinsmobility minSpeed 0
scalar CoordinatedAttackScenario.node[1756].veinsmobility maxSpeed 14.28378415051
scalar CoordinatedAttackScenario.node[1756].veinsmobility totalDistance 3137.1979093823
scalar CoordinatedAttackScenario.node[1756].veinsmobility totalCO2Emission 4420.4717313357
scalar CoordinatedAttackScenario.manager roiArea 0

